<nodes>
    <node id="center" x="0.0" y="0.0" type="traffic_light"/>
    <node id="n" x="0.0" y="100.0"/>
    <node id="s" x="0.0" y="-100.0"/>
    <node id="e" x="100.0" y="0.0"/>
    <node id="w" x="-100.0" y="0.0"/>
</nodes>
