<?xml version="1.0" encoding="UTF-8"?>

<!-- generated on 2026-04-28T23:16:19.923994+01:00 by Eclipse SUMO netconvert 1.26.0
<netconvertConfiguration xmlns:xsi="http://www.w3.org/2001/XMLSchema-instance" xsi:noNamespaceSchemaLocation="http://sumo.dlr.de/xsd/netconvertConfiguration.xsd">

    <input>
        <node-files value="scenarios/random/random.nod.xml"/>
        <edge-files value="scenarios/random/random.edg.xml"/>
    </input>

    <output>
        <output-file value="scenarios/random/random.net.xml"/>
    </output>

    <junctions>
        <no-turnarounds value="true"/>
    </junctions>

</netconvertConfiguration>
-->

<net version="1.20" junctionCornerDetail="5" limitTurnSpeed="5.50" xmlns:xsi="http://www.w3.org/2001/XMLSchema-instance" xsi:noNamespaceSchemaLocation="http://sumo.dlr.de/xsd/net_file.xsd">

    <location netOffset="0.00,0.00" convBoundary="0.00,0.00,600.00,600.00" origBoundary="0.00,0.00,600.00,600.00" projParameter="!"/>

    <edge id=":n_0_0_0" function="internal">
        <lane id=":n_0_0_0_0" index="0" speed="6.51" length="9.03" shape="7.20,4.80 4.75,5.15 3.00,6.20 1.95,7.95 1.60,10.40"/>
    </edge>
    <edge id=":n_0_1_0" function="internal">
        <lane id=":n_0_1_0_0" index="0" speed="6.51" length="9.03" shape="7.20,151.60 4.75,151.95 3.00,153.00 1.95,154.75 1.60,157.20"/>
    </edge>
    <edge id=":n_0_1_1" function="internal">
        <lane id=":n_0_1_1_0" index="0" speed="8.33" length="11.20" shape="1.60,146.00 1.60,157.20"/>
    </edge>
    <edge id=":n_0_2_0" function="internal">
        <lane id=":n_0_2_0_0" index="0" speed="6.51" length="9.03" shape="1.60,292.80 1.95,295.25 3.00,297.00 4.75,298.05 7.20,298.40"/>
    </edge>
    <edge id=":n_0_2_1" function="internal">
        <lane id=":n_0_2_1_0" index="0" speed="8.33" length="11.20" shape="1.60,292.80 1.60,304.00"/>
    </edge>
    <edge id=":n_0_3_0" function="internal">
        <lane id=":n_0_3_0_0" index="0" speed="6.51" length="9.03" shape="7.20,451.60 4.75,451.95 3.00,453.00 1.95,454.75 1.60,457.20"/>
    </edge>
    <edge id=":n_0_3_1" function="internal">
        <lane id=":n_0_3_1_0" index="0" speed="8.33" length="11.20" shape="1.60,446.00 1.60,457.20"/>
    </edge>
    <edge id=":n_0_4_0" function="internal">
        <lane id=":n_0_4_0_0" index="0" speed="6.51" length="9.03" shape="1.60,589.60 1.95,592.05 3.00,593.80 4.75,594.85 7.20,595.20"/>
        <lane id=":n_0_4_0_1" index="1" speed="7.33" length="11.73" shape="1.60,589.60 1.95,593.45 3.00,596.20 4.75,597.85 7.20,598.40"/>
    </edge>
    <edge id=":n_1_0_0" function="internal">
        <lane id=":n_1_0_0_0" index="0" speed="6.51" length="9.03" shape="145.20,10.40 144.85,7.95 143.80,6.20 142.05,5.15 139.60,4.80"/>
        <lane id=":n_1_0_0_1" index="1" speed="8.00" length="14.19" shape="148.40,10.40 147.85,6.55 146.20,3.80 143.45,2.15 139.60,1.60"/>
    </edge>
    <edge id=":n_1_0_2" function="internal">
        <lane id=":n_1_0_2_0" index="0" speed="9.26" length="19.35" shape="148.40,10.40 149.15,5.15 151.40,1.40 155.15,-0.85 160.40,-1.60"/>
    </edge>
    <edge id=":n_1_0_3" function="internal">
        <lane id=":n_1_0_3_0" index="0" speed="6.51" length="9.03" shape="160.40,4.80 157.95,5.15 156.20,6.20 155.15,7.95 154.80,10.40"/>
    </edge>
    <edge id=":n_1_0_4" function="internal">
        <lane id=":n_1_0_4_0" index="0" speed="13.89" length="20.80" shape="160.40,4.80 139.60,4.80"/>
        <lane id=":n_1_0_4_1" index="1" speed="13.89" length="20.80" shape="160.40,1.60 139.60,1.60"/>
    </edge>
    <edge id=":n_1_0_6" function="internal">
        <lane id=":n_1_0_6_0" index="0" speed="13.89" length="20.80" shape="139.60,-4.80 160.40,-4.80"/>
        <lane id=":n_1_0_6_1" index="1" speed="13.89" length="20.80" shape="139.60,-1.60 160.40,-1.60"/>
    </edge>
    <edge id=":n_1_0_8" function="internal">
        <lane id=":n_1_0_8_0" index="0" speed="9.26" length="5.01" shape="139.60,-1.60 144.56,-0.89"/>
    </edge>
    <edge id=":n_1_0_9" function="internal">
        <lane id=":n_1_0_9_0" index="0" speed="9.26" length="14.34" shape="144.56,-0.89 144.85,-0.85 148.60,1.40 150.85,5.15 151.60,10.40"/>
    </edge>
    <edge id=":n_1_1_0" function="internal">
        <lane id=":n_1_1_0_0" index="0" speed="6.51" length="9.03" shape="145.20,157.20 144.85,154.75 143.80,153.00 142.05,151.95 139.60,151.60"/>
    </edge>
    <edge id=":n_1_1_1" function="internal">
        <lane id=":n_1_1_1_0" index="0" speed="13.89" length="11.20" shape="145.20,157.20 145.20,146.00"/>
        <lane id=":n_1_1_1_1" index="1" speed="13.89" length="11.20" shape="148.40,157.20 148.40,146.00"/>
    </edge>
    <edge id=":n_1_1_3" function="internal">
        <lane id=":n_1_1_3_0" index="0" speed="6.51" length="9.03" shape="160.40,151.60 157.95,151.95 156.20,153.00 155.15,154.75 154.80,157.20"/>
    </edge>
    <edge id=":n_1_1_4" function="internal">
        <lane id=":n_1_1_4_0" index="0" speed="8.33" length="20.80" shape="160.40,151.60 139.60,151.60"/>
    </edge>
    <edge id=":n_1_1_5" function="internal">
        <lane id=":n_1_1_5_0" index="0" speed="8.10" length="14.57" shape="160.40,151.60 155.15,151.25 151.40,150.20 149.15,148.45 148.40,146.00"/>
    </edge>
    <edge id=":n_1_1_6" function="internal">
        <lane id=":n_1_1_6_0" index="0" speed="13.89" length="11.20" shape="154.80,146.00 154.80,157.20"/>
        <lane id=":n_1_1_6_1" index="1" speed="13.89" length="11.20" shape="151.60,146.00 151.60,157.20"/>
    </edge>
    <edge id=":n_1_1_8" function="internal">
        <lane id=":n_1_1_8_0" index="0" speed="8.10" length="2.37" shape="151.60,146.00 150.91,148.27"/>
    </edge>
    <edge id=":n_1_1_9" function="internal">
        <lane id=":n_1_1_9_0" index="0" speed="8.10" length="12.20" shape="150.91,148.27 150.85,148.45 148.60,150.20 144.85,151.25 139.60,151.60"/>
    </edge>
    <edge id=":n_1_2_0" function="internal">
        <lane id=":n_1_2_0_0" index="0" speed="13.89" length="11.20" shape="145.20,304.00 145.20,292.80"/>
        <lane id=":n_1_2_0_1" index="1" speed="13.89" length="11.20" shape="148.40,304.00 148.40,292.80"/>
    </edge>
    <edge id=":n_1_2_2" function="internal">
        <lane id=":n_1_2_2_0" index="0" speed="8.10" length="2.37" shape="148.40,304.00 149.09,301.73"/>
    </edge>
    <edge id=":n_1_2_9" function="internal">
        <lane id=":n_1_2_9_0" index="0" speed="8.10" length="12.20" shape="149.09,301.73 149.15,301.55 151.40,299.80 155.15,298.75 160.40,298.40"/>
    </edge>
    <edge id=":n_1_2_3" function="internal">
        <lane id=":n_1_2_3_0" index="0" speed="6.51" length="9.03" shape="154.80,292.80 155.15,295.25 156.20,297.00 157.95,298.05 160.40,298.40"/>
    </edge>
    <edge id=":n_1_2_4" function="internal">
        <lane id=":n_1_2_4_0" index="0" speed="13.89" length="11.20" shape="154.80,292.80 154.80,304.00"/>
        <lane id=":n_1_2_4_1" index="1" speed="13.89" length="11.20" shape="151.60,292.80 151.60,304.00"/>
    </edge>
    <edge id=":n_1_2_6" function="internal">
        <lane id=":n_1_2_6_0" index="0" speed="6.51" length="9.03" shape="139.60,298.40 142.05,298.05 143.80,297.00 144.85,295.25 145.20,292.80"/>
    </edge>
    <edge id=":n_1_2_7" function="internal">
        <lane id=":n_1_2_7_0" index="0" speed="8.33" length="20.80" shape="139.60,298.40 160.40,298.40"/>
    </edge>
    <edge id=":n_1_2_8" function="internal">
        <lane id=":n_1_2_8_0" index="0" speed="8.10" length="14.57" shape="139.60,298.40 144.85,298.75 148.60,299.80 150.85,301.55 151.60,304.00"/>
    </edge>
    <edge id=":n_1_3_0" function="internal">
        <lane id=":n_1_3_0_0" index="0" speed="6.51" length="9.03" shape="145.20,457.20 144.85,454.75 143.80,453.00 142.05,451.95 139.60,451.60"/>
    </edge>
    <edge id=":n_1_3_1" function="internal">
        <lane id=":n_1_3_1_0" index="0" speed="13.89" length="11.20" shape="145.20,457.20 145.20,446.00"/>
        <lane id=":n_1_3_1_1" index="1" speed="13.89" length="11.20" shape="148.40,457.20 148.40,446.00"/>
    </edge>
    <edge id=":n_1_3_3" function="internal">
        <lane id=":n_1_3_3_0" index="0" speed="6.51" length="9.03" shape="160.40,451.60 157.95,451.95 156.20,453.00 155.15,454.75 154.80,457.20"/>
    </edge>
    <edge id=":n_1_3_4" function="internal">
        <lane id=":n_1_3_4_0" index="0" speed="8.33" length="20.80" shape="160.40,451.60 139.60,451.60"/>
    </edge>
    <edge id=":n_1_3_5" function="internal">
        <lane id=":n_1_3_5_0" index="0" speed="8.10" length="14.57" shape="160.40,451.60 155.15,451.25 151.40,450.20 149.15,448.45 148.40,446.00"/>
    </edge>
    <edge id=":n_1_3_6" function="internal">
        <lane id=":n_1_3_6_0" index="0" speed="13.89" length="11.20" shape="154.80,446.00 154.80,457.20"/>
        <lane id=":n_1_3_6_1" index="1" speed="13.89" length="11.20" shape="151.60,446.00 151.60,457.20"/>
    </edge>
    <edge id=":n_1_3_8" function="internal">
        <lane id=":n_1_3_8_0" index="0" speed="8.10" length="2.37" shape="151.60,446.00 150.91,448.27"/>
    </edge>
    <edge id=":n_1_3_9" function="internal">
        <lane id=":n_1_3_9_0" index="0" speed="8.10" length="12.20" shape="150.91,448.27 150.85,448.45 148.60,450.20 144.85,451.25 139.60,451.60"/>
    </edge>
    <edge id=":n_1_4_0" function="internal">
        <lane id=":n_1_4_0_0" index="0" speed="13.89" length="20.80" shape="160.40,604.80 139.60,604.80"/>
        <lane id=":n_1_4_0_1" index="1" speed="13.89" length="20.80" shape="160.40,601.60 139.60,601.60"/>
    </edge>
    <edge id=":n_1_4_2" function="internal">
        <lane id=":n_1_4_2_0" index="0" speed="9.26" length="5.01" shape="160.40,601.60 155.44,600.89"/>
    </edge>
    <edge id=":n_1_4_9" function="internal">
        <lane id=":n_1_4_9_0" index="0" speed="9.26" length="14.34" shape="155.44,600.89 155.15,600.85 151.40,598.60 149.15,594.85 148.40,589.60"/>
    </edge>
    <edge id=":n_1_4_3" function="internal">
        <lane id=":n_1_4_3_0" index="0" speed="6.51" length="9.03" shape="154.80,589.60 155.15,592.05 156.20,593.80 157.95,594.85 160.40,595.20"/>
        <lane id=":n_1_4_3_1" index="1" speed="8.00" length="14.19" shape="151.60,589.60 152.15,593.45 153.80,596.20 156.55,597.85 160.40,598.40"/>
    </edge>
    <edge id=":n_1_4_5" function="internal">
        <lane id=":n_1_4_5_0" index="0" speed="9.26" length="19.35" shape="151.60,589.60 150.85,594.85 148.60,598.60 144.85,600.85 139.60,601.60"/>
    </edge>
    <edge id=":n_1_4_6" function="internal">
        <lane id=":n_1_4_6_0" index="0" speed="6.51" length="9.03" shape="139.60,595.20 142.05,594.85 143.80,593.80 144.85,592.05 145.20,589.60"/>
    </edge>
    <edge id=":n_1_4_7" function="internal">
        <lane id=":n_1_4_7_0" index="0" speed="13.89" length="20.80" shape="139.60,595.20 160.40,595.20"/>
        <lane id=":n_1_4_7_1" index="1" speed="13.89" length="20.80" shape="139.60,598.40 160.40,598.40"/>
    </edge>
    <edge id=":n_2_0_0" function="internal">
        <lane id=":n_2_0_0_0" index="0" speed="6.51" length="9.03" shape="307.20,4.80 304.75,5.15 303.00,6.20 301.95,7.95 301.60,10.40"/>
    </edge>
    <edge id=":n_2_0_1" function="internal">
        <lane id=":n_2_0_1_0" index="0" speed="13.89" length="11.20" shape="307.20,4.80 296.00,4.80"/>
        <lane id=":n_2_0_1_1" index="1" speed="13.89" length="11.20" shape="307.20,1.60 296.00,1.60"/>
    </edge>
    <edge id=":n_2_0_3" function="internal">
        <lane id=":n_2_0_3_0" index="0" speed="13.89" length="11.20" shape="296.00,-4.80 307.20,-4.80"/>
        <lane id=":n_2_0_3_1" index="1" speed="13.89" length="11.20" shape="296.00,-1.60 307.20,-1.60"/>
    </edge>
    <edge id=":n_2_0_5" function="internal">
        <lane id=":n_2_0_5_0" index="0" speed="8.10" length="2.37" shape="296.00,-1.60 298.27,-0.91"/>
    </edge>
    <edge id=":n_2_0_6" function="internal">
        <lane id=":n_2_0_6_0" index="0" speed="8.10" length="12.20" shape="298.27,-0.91 298.45,-0.85 300.20,1.40 301.25,5.15 301.60,10.40"/>
    </edge>
    <edge id=":n_2_1_0" function="internal">
        <lane id=":n_2_1_0_0" index="0" speed="6.51" length="9.03" shape="307.20,151.60 304.75,151.95 303.00,153.00 301.95,154.75 301.60,157.20"/>
    </edge>
    <edge id=":n_2_1_1" function="internal">
        <lane id=":n_2_1_1_0" index="0" speed="8.33" length="11.20" shape="307.20,151.60 296.00,151.60"/>
    </edge>
    <edge id=":n_2_1_2" function="internal">
        <lane id=":n_2_1_2_0" index="0" speed="8.33" length="11.20" shape="301.60,146.00 301.60,157.20"/>
    </edge>
    <edge id=":n_2_1_3" function="internal">
        <lane id=":n_2_1_3_0" index="0" speed="6.51" length="4.11" shape="301.60,146.00 301.25,148.45 300.41,149.85"/>
    </edge>
    <edge id=":n_2_1_4" function="internal">
        <lane id=":n_2_1_4_0" index="0" speed="6.51" length="4.93" shape="300.41,149.85 300.20,150.20 298.45,151.25 296.00,151.60"/>
    </edge>
    <edge id=":n_2_2_0" function="internal">
        <lane id=":n_2_2_0_0" index="0" speed="6.51" length="9.03" shape="301.60,292.80 301.95,295.25 303.00,297.00 304.75,298.05 307.20,298.40"/>
    </edge>
    <edge id=":n_2_2_1" function="internal">
        <lane id=":n_2_2_1_0" index="0" speed="8.33" length="11.20" shape="301.60,292.80 301.60,304.00"/>
    </edge>
    <edge id=":n_2_2_2" function="internal">
        <lane id=":n_2_2_2_0" index="0" speed="8.33" length="11.20" shape="296.00,298.40 307.20,298.40"/>
    </edge>
    <edge id=":n_2_2_3" function="internal">
        <lane id=":n_2_2_3_0" index="0" speed="6.51" length="4.11" shape="296.00,298.40 298.45,298.75 299.85,299.59"/>
    </edge>
    <edge id=":n_2_2_4" function="internal">
        <lane id=":n_2_2_4_0" index="0" speed="6.51" length="4.93" shape="299.85,299.59 300.20,299.80 301.25,301.55 301.60,304.00"/>
    </edge>
    <edge id=":n_2_3_0" function="internal">
        <lane id=":n_2_3_0_0" index="0" speed="6.51" length="9.03" shape="307.20,451.60 304.75,451.95 303.00,453.00 301.95,454.75 301.60,457.20"/>
    </edge>
    <edge id=":n_2_3_1" function="internal">
        <lane id=":n_2_3_1_0" index="0" speed="8.33" length="11.20" shape="307.20,451.60 296.00,451.60"/>
    </edge>
    <edge id=":n_2_3_2" function="internal">
        <lane id=":n_2_3_2_0" index="0" speed="8.33" length="11.20" shape="301.60,446.00 301.60,457.20"/>
    </edge>
    <edge id=":n_2_3_3" function="internal">
        <lane id=":n_2_3_3_0" index="0" speed="6.51" length="4.11" shape="301.60,446.00 301.25,448.45 300.41,449.85"/>
    </edge>
    <edge id=":n_2_3_4" function="internal">
        <lane id=":n_2_3_4_0" index="0" speed="6.51" length="4.93" shape="300.41,449.85 300.20,450.20 298.45,451.25 296.00,451.60"/>
    </edge>
    <edge id=":n_2_4_0" function="internal">
        <lane id=":n_2_4_0_0" index="0" speed="13.89" length="11.20" shape="307.20,604.80 296.00,604.80"/>
        <lane id=":n_2_4_0_1" index="1" speed="13.89" length="11.20" shape="307.20,601.60 296.00,601.60"/>
    </edge>
    <edge id=":n_2_4_2" function="internal">
        <lane id=":n_2_4_2_0" index="0" speed="6.51" length="9.03" shape="301.60,589.60 301.95,592.05 303.00,593.80 304.75,594.85 307.20,595.20"/>
    </edge>
    <edge id=":n_2_4_3" function="internal">
        <lane id=":n_2_4_3_0" index="0" speed="8.10" length="14.57" shape="301.60,589.60 301.25,594.85 300.20,598.60 298.45,600.85 296.00,601.60"/>
    </edge>
    <edge id=":n_2_4_4" function="internal">
        <lane id=":n_2_4_4_0" index="0" speed="13.89" length="11.20" shape="296.00,595.20 307.20,595.20"/>
        <lane id=":n_2_4_4_1" index="1" speed="13.89" length="11.20" shape="296.00,598.40 307.20,598.40"/>
    </edge>
    <edge id=":n_3_0_0" function="internal">
        <lane id=":n_3_0_0_0" index="0" speed="6.51" length="9.03" shape="448.40,10.40 448.05,7.95 447.00,6.20 445.25,5.15 442.80,4.80"/>
    </edge>
    <edge id=":n_3_0_1" function="internal">
        <lane id=":n_3_0_1_0" index="0" speed="8.10" length="14.57" shape="448.40,10.40 448.75,5.15 449.80,1.40 451.55,-0.85 454.00,-1.60"/>
    </edge>
    <edge id=":n_3_0_2" function="internal">
        <lane id=":n_3_0_2_0" index="0" speed="13.89" length="11.20" shape="454.00,4.80 442.80,4.80"/>
        <lane id=":n_3_0_2_1" index="1" speed="13.89" length="11.20" shape="454.00,1.60 442.80,1.60"/>
    </edge>
    <edge id=":n_3_0_4" function="internal">
        <lane id=":n_3_0_4_0" index="0" speed="13.89" length="11.20" shape="442.80,-4.80 454.00,-4.80"/>
        <lane id=":n_3_0_4_1" index="1" speed="13.89" length="11.20" shape="442.80,-1.60 454.00,-1.60"/>
    </edge>
    <edge id=":n_3_1_0" function="internal">
        <lane id=":n_3_1_0_0" index="0" speed="6.51" length="9.03" shape="448.40,157.20 448.05,154.75 447.00,153.00 445.25,151.95 442.80,151.60"/>
    </edge>
    <edge id=":n_3_1_1" function="internal">
        <lane id=":n_3_1_1_0" index="0" speed="8.33" length="11.20" shape="448.40,157.20 448.40,146.00"/>
    </edge>
    <edge id=":n_3_1_2" function="internal">
        <lane id=":n_3_1_2_0" index="0" speed="8.33" length="11.20" shape="454.00,151.60 442.80,151.60"/>
    </edge>
    <edge id=":n_3_1_3" function="internal">
        <lane id=":n_3_1_3_0" index="0" speed="6.51" length="4.11" shape="454.00,151.60 451.55,151.25 450.15,150.41"/>
    </edge>
    <edge id=":n_3_1_4" function="internal">
        <lane id=":n_3_1_4_0" index="0" speed="6.51" length="4.93" shape="450.15,150.41 449.80,150.20 448.75,148.45 448.40,146.00"/>
    </edge>
    <edge id=":n_3_2_0" function="internal">
        <lane id=":n_3_2_0_0" index="0" speed="8.33" length="11.20" shape="448.40,304.00 448.40,292.80"/>
    </edge>
    <edge id=":n_3_2_1" function="internal">
        <lane id=":n_3_2_1_0" index="0" speed="6.51" length="4.11" shape="448.40,304.00 448.75,301.55 449.59,300.15"/>
    </edge>
    <edge id=":n_3_2_4" function="internal">
        <lane id=":n_3_2_4_0" index="0" speed="6.51" length="4.93" shape="449.59,300.15 449.80,299.80 451.55,298.75 454.00,298.40"/>
    </edge>
    <edge id=":n_3_2_2" function="internal">
        <lane id=":n_3_2_2_0" index="0" speed="6.51" length="9.03" shape="442.80,298.40 445.25,298.05 447.00,297.00 448.05,295.25 448.40,292.80"/>
    </edge>
    <edge id=":n_3_2_3" function="internal">
        <lane id=":n_3_2_3_0" index="0" speed="8.33" length="11.20" shape="442.80,298.40 454.00,298.40"/>
    </edge>
    <edge id=":n_3_3_0" function="internal">
        <lane id=":n_3_3_0_0" index="0" speed="6.51" length="9.03" shape="448.40,457.20 448.05,454.75 447.00,453.00 445.25,451.95 442.80,451.60"/>
    </edge>
    <edge id=":n_3_3_1" function="internal">
        <lane id=":n_3_3_1_0" index="0" speed="8.33" length="11.20" shape="448.40,457.20 448.40,446.00"/>
    </edge>
    <edge id=":n_3_3_2" function="internal">
        <lane id=":n_3_3_2_0" index="0" speed="8.33" length="11.20" shape="454.00,451.60 442.80,451.60"/>
    </edge>
    <edge id=":n_3_3_3" function="internal">
        <lane id=":n_3_3_3_0" index="0" speed="6.51" length="4.11" shape="454.00,451.60 451.55,451.25 450.15,450.41"/>
    </edge>
    <edge id=":n_3_3_4" function="internal">
        <lane id=":n_3_3_4_0" index="0" speed="6.51" length="4.93" shape="450.15,450.41 449.80,450.20 448.75,448.45 448.40,446.00"/>
    </edge>
    <edge id=":n_3_4_0" function="internal">
        <lane id=":n_3_4_0_0" index="0" speed="13.89" length="11.20" shape="454.00,604.80 442.80,604.80"/>
        <lane id=":n_3_4_0_1" index="1" speed="13.89" length="11.20" shape="454.00,601.60 442.80,601.60"/>
    </edge>
    <edge id=":n_3_4_2" function="internal">
        <lane id=":n_3_4_2_0" index="0" speed="8.10" length="2.37" shape="454.00,601.60 451.73,600.91"/>
    </edge>
    <edge id=":n_3_4_6" function="internal">
        <lane id=":n_3_4_6_0" index="0" speed="8.10" length="12.20" shape="451.73,600.91 451.55,600.85 449.80,598.60 448.75,594.85 448.40,589.60"/>
    </edge>
    <edge id=":n_3_4_3" function="internal">
        <lane id=":n_3_4_3_0" index="0" speed="6.51" length="9.03" shape="442.80,595.20 445.25,594.85 447.00,593.80 448.05,592.05 448.40,589.60"/>
    </edge>
    <edge id=":n_3_4_4" function="internal">
        <lane id=":n_3_4_4_0" index="0" speed="13.89" length="11.20" shape="442.80,595.20 454.00,595.20"/>
        <lane id=":n_3_4_4_1" index="1" speed="13.89" length="11.20" shape="442.80,598.40 454.00,598.40"/>
    </edge>
    <edge id=":n_4_0_0" function="internal">
        <lane id=":n_4_0_0_0" index="0" speed="3.90" length="2.58" shape="595.20,6.40 595.10,5.70 594.80,5.20 594.30,4.90 593.60,4.80"/>
        <lane id=":n_4_0_0_1" index="1" speed="6.08" length="7.74" shape="598.40,6.40 598.10,4.30 597.20,2.80 595.70,1.90 593.60,1.60"/>
    </edge>
    <edge id=":n_4_0_2" function="internal">
        <lane id=":n_4_0_2_0" index="0" speed="8.96" length="18.06" shape="593.60,-4.80 598.50,-4.10 602.00,-2.00 604.10,1.50 604.80,6.40"/>
        <lane id=":n_4_0_2_1" index="1" speed="7.66" length="12.90" shape="593.60,-1.60 597.10,-1.10 599.60,0.40 601.10,2.90 601.60,6.40"/>
    </edge>
    <edge id=":n_4_1_0" function="internal">
        <lane id=":n_4_1_0_0" index="0" speed="6.51" length="9.03" shape="595.20,157.20 594.85,154.75 593.80,153.00 592.05,151.95 589.60,151.60"/>
    </edge>
    <edge id=":n_4_1_1" function="internal">
        <lane id=":n_4_1_1_0" index="0" speed="13.89" length="11.20" shape="595.20,157.20 595.20,146.00"/>
        <lane id=":n_4_1_1_1" index="1" speed="13.89" length="11.20" shape="598.40,157.20 598.40,146.00"/>
    </edge>
    <edge id=":n_4_1_3" function="internal">
        <lane id=":n_4_1_3_0" index="0" speed="13.89" length="11.20" shape="604.80,146.00 604.80,157.20"/>
        <lane id=":n_4_1_3_1" index="1" speed="13.89" length="11.20" shape="601.60,146.00 601.60,157.20"/>
    </edge>
    <edge id=":n_4_1_5" function="internal">
        <lane id=":n_4_1_5_0" index="0" speed="8.10" length="2.37" shape="601.60,146.00 600.91,148.27"/>
    </edge>
    <edge id=":n_4_1_6" function="internal">
        <lane id=":n_4_1_6_0" index="0" speed="8.10" length="12.20" shape="600.91,148.27 600.85,148.45 598.60,150.20 594.85,151.25 589.60,151.60"/>
    </edge>
    <edge id=":n_4_2_0" function="internal">
        <lane id=":n_4_2_0_0" index="0" speed="13.89" length="11.20" shape="595.20,304.00 595.20,292.80"/>
        <lane id=":n_4_2_0_1" index="1" speed="13.89" length="11.20" shape="598.40,304.00 598.40,292.80"/>
    </edge>
    <edge id=":n_4_2_2" function="internal">
        <lane id=":n_4_2_2_0" index="0" speed="13.89" length="11.20" shape="604.80,292.80 604.80,304.00"/>
        <lane id=":n_4_2_2_1" index="1" speed="13.89" length="11.20" shape="601.60,292.80 601.60,304.00"/>
    </edge>
    <edge id=":n_4_2_4" function="internal">
        <lane id=":n_4_2_4_0" index="0" speed="6.51" length="9.03" shape="589.60,298.40 592.05,298.05 593.80,297.00 594.85,295.25 595.20,292.80"/>
    </edge>
    <edge id=":n_4_2_5" function="internal">
        <lane id=":n_4_2_5_0" index="0" speed="8.10" length="14.57" shape="589.60,298.40 594.85,298.75 598.60,299.80 600.85,301.55 601.60,304.00"/>
    </edge>
    <edge id=":n_4_3_0" function="internal">
        <lane id=":n_4_3_0_0" index="0" speed="6.51" length="9.03" shape="595.20,457.20 594.85,454.75 593.80,453.00 592.05,451.95 589.60,451.60"/>
    </edge>
    <edge id=":n_4_3_1" function="internal">
        <lane id=":n_4_3_1_0" index="0" speed="13.89" length="11.20" shape="595.20,457.20 595.20,446.00"/>
        <lane id=":n_4_3_1_1" index="1" speed="13.89" length="11.20" shape="598.40,457.20 598.40,446.00"/>
    </edge>
    <edge id=":n_4_3_3" function="internal">
        <lane id=":n_4_3_3_0" index="0" speed="13.89" length="11.20" shape="604.80,446.00 604.80,457.20"/>
        <lane id=":n_4_3_3_1" index="1" speed="13.89" length="11.20" shape="601.60,446.00 601.60,457.20"/>
    </edge>
    <edge id=":n_4_3_5" function="internal">
        <lane id=":n_4_3_5_0" index="0" speed="8.10" length="2.37" shape="601.60,446.00 600.91,448.27"/>
    </edge>
    <edge id=":n_4_3_6" function="internal">
        <lane id=":n_4_3_6_0" index="0" speed="8.10" length="12.20" shape="600.91,448.27 600.85,448.45 598.60,450.20 594.85,451.25 589.60,451.60"/>
    </edge>
    <edge id=":n_4_4_0" function="internal">
        <lane id=":n_4_4_0_0" index="0" speed="8.96" length="18.06" shape="604.80,593.60 604.10,598.50 602.00,602.00 598.50,604.10 593.60,604.80"/>
        <lane id=":n_4_4_0_1" index="1" speed="7.66" length="12.90" shape="601.60,593.60 601.10,597.10 599.60,599.60 597.10,601.10 593.60,601.60"/>
    </edge>
    <edge id=":n_4_4_2" function="internal">
        <lane id=":n_4_4_2_0" index="0" speed="3.90" length="2.58" shape="593.60,595.20 594.30,595.10 594.80,594.80 595.10,594.30 595.20,593.60"/>
        <lane id=":n_4_4_2_1" index="1" speed="6.08" length="7.74" shape="593.60,598.40 595.70,598.10 597.20,597.20 598.10,595.70 598.40,593.60"/>
    </edge>

    <edge id="E_n_0_0_n_0_1" from="n_0_0" to="n_0_1" priority="1">
        <lane id="E_n_0_0_n_0_1_0" index="0" speed="8.33" length="135.60" shape="1.60,10.40 1.60,146.00"/>
    </edge>
    <edge id="E_n_0_0_n_1_0" from="n_0_0" to="n_1_0" priority="3">
        <lane id="E_n_0_0_n_1_0_0" index="0" speed="13.89" length="132.40" shape="7.20,-4.80 139.60,-4.80"/>
        <lane id="E_n_0_0_n_1_0_1" index="1" speed="13.89" length="132.40" shape="7.20,-1.60 139.60,-1.60"/>
    </edge>
    <edge id="E_n_0_1_n_0_2" from="n_0_1" to="n_0_2" priority="1">
        <lane id="E_n_0_1_n_0_2_0" index="0" speed="8.33" length="135.60" shape="1.60,157.20 1.60,292.80"/>
    </edge>
    <edge id="E_n_0_2_n_0_3" from="n_0_2" to="n_0_3" priority="1">
        <lane id="E_n_0_2_n_0_3_0" index="0" speed="8.33" length="142.00" shape="1.60,304.00 1.60,446.00"/>
    </edge>
    <edge id="E_n_0_2_n_1_2" from="n_0_2" to="n_1_2" priority="1">
        <lane id="E_n_0_2_n_1_2_0" index="0" speed="8.33" length="132.40" shape="7.20,298.40 139.60,298.40"/>
    </edge>
    <edge id="E_n_0_3_n_0_4" from="n_0_3" to="n_0_4" priority="1">
        <lane id="E_n_0_3_n_0_4_0" index="0" speed="8.33" length="132.40" shape="1.60,457.20 1.60,589.60"/>
    </edge>
    <edge id="E_n_0_4_n_1_4" from="n_0_4" to="n_1_4" priority="3">
        <lane id="E_n_0_4_n_1_4_0" index="0" speed="13.89" length="132.40" shape="7.20,595.20 139.60,595.20"/>
        <lane id="E_n_0_4_n_1_4_1" index="1" speed="13.89" length="132.40" shape="7.20,598.40 139.60,598.40"/>
    </edge>
    <edge id="E_n_1_0_n_0_0" from="n_1_0" to="n_0_0" priority="3">
        <lane id="E_n_1_0_n_0_0_0" index="0" speed="13.89" length="132.40" shape="139.60,4.80 7.20,4.80"/>
        <lane id="E_n_1_0_n_0_0_1" index="1" speed="13.89" length="132.40" shape="139.60,1.60 7.20,1.60"/>
    </edge>
    <edge id="E_n_1_0_n_1_1" from="n_1_0" to="n_1_1" priority="3">
        <lane id="E_n_1_0_n_1_1_0" index="0" speed="13.89" length="135.60" shape="154.80,10.40 154.80,146.00"/>
        <lane id="E_n_1_0_n_1_1_1" index="1" speed="13.89" length="135.60" shape="151.60,10.40 151.60,146.00"/>
    </edge>
    <edge id="E_n_1_0_n_2_0" from="n_1_0" to="n_2_0" priority="3">
        <lane id="E_n_1_0_n_2_0_0" index="0" speed="13.89" length="135.60" shape="160.40,-4.80 296.00,-4.80"/>
        <lane id="E_n_1_0_n_2_0_1" index="1" speed="13.89" length="135.60" shape="160.40,-1.60 296.00,-1.60"/>
    </edge>
    <edge id="E_n_1_1_n_0_1" from="n_1_1" to="n_0_1" priority="1">
        <lane id="E_n_1_1_n_0_1_0" index="0" speed="8.33" length="132.40" shape="139.60,151.60 7.20,151.60"/>
    </edge>
    <edge id="E_n_1_1_n_1_0" from="n_1_1" to="n_1_0" priority="3">
        <lane id="E_n_1_1_n_1_0_0" index="0" speed="13.89" length="135.60" shape="145.20,146.00 145.20,10.40"/>
        <lane id="E_n_1_1_n_1_0_1" index="1" speed="13.89" length="135.60" shape="148.40,146.00 148.40,10.40"/>
    </edge>
    <edge id="E_n_1_1_n_1_2" from="n_1_1" to="n_1_2" priority="3">
        <lane id="E_n_1_1_n_1_2_0" index="0" speed="13.89" length="135.60" shape="154.80,157.20 154.80,292.80"/>
        <lane id="E_n_1_1_n_1_2_1" index="1" speed="13.89" length="135.60" shape="151.60,157.20 151.60,292.80"/>
    </edge>
    <edge id="E_n_1_2_n_1_1" from="n_1_2" to="n_1_1" priority="3">
        <lane id="E_n_1_2_n_1_1_0" index="0" speed="13.89" length="135.60" shape="145.20,292.80 145.20,157.20"/>
        <lane id="E_n_1_2_n_1_1_1" index="1" speed="13.89" length="135.60" shape="148.40,292.80 148.40,157.20"/>
    </edge>
    <edge id="E_n_1_2_n_1_3" from="n_1_2" to="n_1_3" priority="3">
        <lane id="E_n_1_2_n_1_3_0" index="0" speed="13.89" length="142.00" shape="154.80,304.00 154.80,446.00"/>
        <lane id="E_n_1_2_n_1_3_1" index="1" speed="13.89" length="142.00" shape="151.60,304.00 151.60,446.00"/>
    </edge>
    <edge id="E_n_1_2_n_2_2" from="n_1_2" to="n_2_2" priority="1">
        <lane id="E_n_1_2_n_2_2_0" index="0" speed="8.33" length="135.60" shape="160.40,298.40 296.00,298.40"/>
    </edge>
    <edge id="E_n_1_3_n_0_3" from="n_1_3" to="n_0_3" priority="1">
        <lane id="E_n_1_3_n_0_3_0" index="0" speed="8.33" length="132.40" shape="139.60,451.60 7.20,451.60"/>
    </edge>
    <edge id="E_n_1_3_n_1_2" from="n_1_3" to="n_1_2" priority="3">
        <lane id="E_n_1_3_n_1_2_0" index="0" speed="13.89" length="142.00" shape="145.20,446.00 145.20,304.00"/>
        <lane id="E_n_1_3_n_1_2_1" index="1" speed="13.89" length="142.00" shape="148.40,446.00 148.40,304.00"/>
    </edge>
    <edge id="E_n_1_3_n_1_4" from="n_1_3" to="n_1_4" priority="3">
        <lane id="E_n_1_3_n_1_4_0" index="0" speed="13.89" length="132.40" shape="154.80,457.20 154.80,589.60"/>
        <lane id="E_n_1_3_n_1_4_1" index="1" speed="13.89" length="132.40" shape="151.60,457.20 151.60,589.60"/>
    </edge>
    <edge id="E_n_1_4_n_0_4" from="n_1_4" to="n_0_4" priority="3">
        <lane id="E_n_1_4_n_0_4_0" index="0" speed="13.89" length="132.40" shape="139.60,604.80 7.20,604.80"/>
        <lane id="E_n_1_4_n_0_4_1" index="1" speed="13.89" length="132.40" shape="139.60,601.60 7.20,601.60"/>