<nodes><node id="n_0_0" x="0" y="0" type="traffic_light" /><node id="n_1_0" x="150" y="0" type="priority" /><node id="n_2_0" x="300" y="0" type="traffic_light" /><node id="n_3_0" x="450" y="0" type="priority" /><node id="n_4_0" x="600" y="0" type="priority" /><node id="n_0_1" x="0" y="150" type="traffic_light" /><node id="n_1_1" x="150" y="150" type="traffic_light" /><node id="n_2_1" x="300" y="150" type="traffic_light" /><node id="n_3_1" x="450" y="150" type="traffic_light" /><node id="n_4_1" x="600" y="150" type="traffic_light" /><node id="n_0_2" x="0" y="300" type="traffic_light" /><node id="n_1_2" x="150" y="300" type="traffic_light" /><node id="n_2_2" x="300" y="300" type="traffic_light" /><node id="n_3_2" x="450" y="300" type="traffic_light" /><node id="n_4_2" x="600" y="300" type="traffic_light" /><node id="n_0_3" x="0" y="450" type="traffic_light" /><node id="n_1_3" x="150" y="450" type="priority" /><node id="n_2_3" x="300" y="450" type="traffic_light" /><node id="n_3_3" x="450" y="450" type="priority" /><node id="n_4_3" x="600" y="450" type="priority" /><node id="n_0_4" x="0" y="600" type="traffic_light" /><node id="n_1_4" x="150" y="600" type="priority" /><node id="n_2_4" x="300" y="600" type="traffic_light" /><node id="n_3_4" x="450" y="600" type="priority" /><node id="n_4_4" x="600" y="600" type="priority" /></nodes>