<?xml version="1.0" encoding="UTF-8"?>

<!-- generated on 2026-04-30T17:43:43.594284+01:00 by Eclipse SUMO netconvert 1.26.0
<netconvertConfiguration xmlns:xsi="http://www.w3.org/2001/XMLSchema-instance" xsi:noNamespaceSchemaLocation="http://sumo.dlr.de/xsd/netconvertConfiguration.xsd">

    <input>
        <node-files value="scenarios/random/random.nod.xml"/>
        <edge-files value="scenarios/random/random.edg.xml"/>
    </input>

    <output>
        <output-file value="scenarios/random/random.net.xml"/>
    </output>

    <junctions>
        <no-turnarounds value="true"/>
    </junctions>

</netconvertConfiguration>
-->

<net version="1.20" junctionCornerDetail="5" limitTurnSpeed="5.50" xmlns:xsi="http://www.w3.org/2001/XMLSchema-instance" xsi:noNamespaceSchemaLocation="http://sumo.dlr.de/xsd/net_file.xsd">

    <location netOffset="0.00,0.00" convBoundary="0.00,0.00,600.00,600.00" origBoundary="0.00,0.00,600.00,600.00" projParameter="!"/>

    <edge id=":n_0_0_0" function="internal">
        <lane id=":n_0_0_0_0" index="0" speed="7.88" length="13.71" shape="-4.80,1.50 -4.01,0.14 -1.62,-0.83 2.34,-1.41 7.90,-1.60"/>
    </edge>
    <edge id=":n_0_1_0" function="internal">
        <lane id=":n_0_1_0_0" index="0" speed="13.89" length="20.80" shape="-4.80,160.40 -4.80,139.60"/>
        <lane id=":n_0_1_0_1" index="1" speed="13.89" length="20.80" shape="-1.60,160.40 -1.60,139.60"/>
    </edge>
    <edge id=":n_0_1_2" function="internal">
        <lane id=":n_0_1_2_0" index="0" speed="9.26" length="5.01" shape="-1.60,160.40 -0.89,155.44"/>
    </edge>
    <edge id=":n_0_1_9" function="internal">
        <lane id=":n_0_1_9_0" index="0" speed="9.26" length="14.34" shape="-0.89,155.44 -0.85,155.15 1.40,151.40 5.15,149.15 10.40,148.40"/>
    </edge>
    <edge id=":n_0_1_3" function="internal">
        <lane id=":n_0_1_3_0" index="0" speed="6.51" length="9.03" shape="10.40,154.80 7.95,155.15 6.20,156.20 5.15,157.95 4.80,160.40"/>
        <lane id=":n_0_1_3_1" index="1" speed="8.00" length="14.19" shape="10.40,151.60 6.55,152.15 3.80,153.80 2.15,156.55 1.60,160.40"/>
    </edge>
    <edge id=":n_0_1_5" function="internal">
        <lane id=":n_0_1_5_0" index="0" speed="9.26" length="19.35" shape="10.40,151.60 5.15,150.85 1.40,148.60 -0.85,144.85 -1.60,139.60"/>
    </edge>
    <edge id=":n_0_1_6" function="internal">
        <lane id=":n_0_1_6_0" index="0" speed="6.51" length="9.03" shape="4.80,139.60 5.15,142.05 6.20,143.80 7.95,144.85 10.40,145.20"/>
    </edge>
    <edge id=":n_0_1_7" function="internal">
        <lane id=":n_0_1_7_0" index="0" speed="13.89" length="20.80" shape="4.80,139.60 4.80,160.40"/>
        <lane id=":n_0_1_7_1" index="1" speed="13.89" length="20.80" shape="1.60,139.60 1.60,160.40"/>
    </edge>
    <edge id=":n_0_2_0" function="internal">
        <lane id=":n_0_2_0_0" index="0" speed="13.89" length="20.80" shape="-4.80,310.40 -4.80,289.60"/>
        <lane id=":n_0_2_0_1" index="1" speed="13.89" length="20.80" shape="-1.60,310.40 -1.60,289.60"/>
    </edge>
    <edge id=":n_0_2_2" function="internal">
        <lane id=":n_0_2_2_0" index="0" speed="9.26" length="5.01" shape="-1.60,310.40 -0.89,305.44"/>
    </edge>
    <edge id=":n_0_2_9" function="internal">
        <lane id=":n_0_2_9_0" index="0" speed="9.26" length="14.34" shape="-0.89,305.44 -0.85,305.15 1.40,301.40 5.15,299.15 10.40,298.40"/>
    </edge>
    <edge id=":n_0_2_3" function="internal">
        <lane id=":n_0_2_3_0" index="0" speed="6.51" length="9.03" shape="10.40,304.80 7.95,305.15 6.20,306.20 5.15,307.95 4.80,310.40"/>
        <lane id=":n_0_2_3_1" index="1" speed="8.00" length="14.19" shape="10.40,301.60 6.55,302.15 3.80,303.80 2.15,306.55 1.60,310.40"/>
    </edge>
    <edge id=":n_0_2_5" function="internal">
        <lane id=":n_0_2_5_0" index="0" speed="9.26" length="19.35" shape="10.40,301.60 5.15,300.85 1.40,298.60 -0.85,294.85 -1.60,289.60"/>
    </edge>
    <edge id=":n_0_2_6" function="internal">
        <lane id=":n_0_2_6_0" index="0" speed="6.51" length="9.03" shape="4.80,289.60 5.15,292.05 6.20,293.80 7.95,294.85 10.40,295.20"/>
    </edge>
    <edge id=":n_0_2_7" function="internal">
        <lane id=":n_0_2_7_0" index="0" speed="13.89" length="20.80" shape="4.80,289.60 4.80,310.40"/>
        <lane id=":n_0_2_7_1" index="1" speed="13.89" length="20.80" shape="1.60,289.60 1.60,310.40"/>
    </edge>
    <edge id=":n_0_3_0" function="internal">
        <lane id=":n_0_3_0_0" index="0" speed="13.89" length="11.20" shape="-4.80,457.20 -4.80,446.00"/>
        <lane id=":n_0_3_0_1" index="1" speed="13.89" length="11.20" shape="-1.60,457.20 -1.60,446.00"/>
    </edge>
    <edge id=":n_0_3_2" function="internal">
        <lane id=":n_0_3_2_0" index="0" speed="6.51" length="9.03" shape="10.40,451.60 7.95,451.95 6.20,453.00 5.15,454.75 4.80,457.20"/>
    </edge>
    <edge id=":n_0_3_3" function="internal">
        <lane id=":n_0_3_3_0" index="0" speed="8.10" length="14.57" shape="10.40,451.60 5.15,451.25 1.40,450.20 -0.85,448.45 -1.60,446.00"/>
    </edge>
    <edge id=":n_0_3_4" function="internal">
        <lane id=":n_0_3_4_0" index="0" speed="13.89" length="11.20" shape="4.80,446.00 4.80,457.20"/>
        <lane id=":n_0_3_4_1" index="1" speed="13.89" length="11.20" shape="1.60,446.00 1.60,457.20"/>
    </edge>
    <edge id=":n_0_4_0" function="internal">
        <lane id=":n_0_4_0_0" index="0" speed="6.51" length="9.03" shape="4.80,592.80 5.15,595.25 6.20,597.00 7.95,598.05 10.40,598.40"/>
    </edge>
    <edge id=":n_1_0_0" function="internal">
        <lane id=":n_1_0_0_0" index="0" speed="6.51" length="4.11" shape="148.40,4.00 148.75,1.55 149.59,0.15"/>
    </edge>
    <edge id=":n_1_0_2" function="internal">
        <lane id=":n_1_0_2_0" index="0" speed="6.51" length="4.93" shape="149.59,0.15 149.80,-0.20 151.55,-1.25 154.00,-1.60"/>
    </edge>
    <edge id=":n_1_0_1" function="internal">
        <lane id=":n_1_0_1_0" index="0" speed="8.33" length="11.20" shape="142.80,-1.60 154.00,-1.60"/>
    </edge>
    <edge id=":n_1_1_0" function="internal">
        <lane id=":n_1_1_0_0" index="0" speed="6.51" length="9.03" shape="148.40,160.40 148.05,157.95 147.00,156.20 145.25,155.15 142.80,154.80"/>
    </edge>
    <edge id=":n_1_1_1" function="internal">
        <lane id=":n_1_1_1_0" index="0" speed="8.33" length="20.80" shape="148.40,160.40 148.40,139.60"/>
    </edge>
    <edge id=":n_1_1_2" function="internal">
        <lane id=":n_1_1_2_0" index="0" speed="8.10" length="14.57" shape="148.40,160.40 148.75,155.15 149.80,151.40 151.55,149.15 154.00,148.40"/>
    </edge>
    <edge id=":n_1_1_3" function="internal">
        <lane id=":n_1_1_3_0" index="0" speed="13.89" length="11.20" shape="154.00,154.80 142.80,154.80"/>
        <lane id=":n_1_1_3_1" index="1" speed="13.89" length="11.20" shape="154.00,151.60 142.80,151.60"/>
    </edge>
    <edge id=":n_1_1_5" function="internal">
        <lane id=":n_1_1_5_0" index="0" speed="8.10" length="2.37" shape="154.00,151.60 151.73,150.91"/>
    </edge>
    <edge id=":n_1_1_9" function="internal">
        <lane id=":n_1_1_9_0" index="0" speed="8.10" length="12.20" shape="151.73,150.91 151.55,150.85 149.80,148.60 148.75,144.85 148.40,139.60"/>
    </edge>
    <edge id=":n_1_1_6" function="internal">
        <lane id=":n_1_1_6_0" index="0" speed="6.51" length="9.03" shape="142.80,145.20 145.25,144.85 147.00,143.80 148.05,142.05 148.40,139.60"/>
    </edge>
    <edge id=":n_1_1_7" function="internal">
        <lane id=":n_1_1_7_0" index="0" speed="13.89" length="11.20" shape="142.80,145.20 154.00,145.20"/>
        <lane id=":n_1_1_7_1" index="1" speed="13.89" length="11.20" shape="142.80,148.40 154.00,148.40"/>
    </edge>
    <edge id=":n_1_2_0" function="internal">
        <lane id=":n_1_2_0_0" index="0" speed="6.51" length="9.03" shape="148.40,310.40 148.05,307.95 147.00,306.20 145.25,305.15 142.80,304.80"/>
    </edge>
    <edge id=":n_1_2_1" function="internal">
        <lane id=":n_1_2_1_0" index="0" speed="8.33" length="20.80" shape="148.40,310.40 148.40,289.60"/>
    </edge>
    <edge id=":n_1_2_2" function="internal">
        <lane id=":n_1_2_2_0" index="0" speed="8.10" length="14.57" shape="148.40,310.40 148.75,305.15 149.80,301.40 151.55,299.15 154.00,298.40"/>
    </edge>
    <edge id=":n_1_2_3" function="internal">
        <lane id=":n_1_2_3_0" index="0" speed="13.89" length="11.20" shape="154.00,304.80 142.80,304.80"/>
        <lane id=":n_1_2_3_1" index="1" speed="13.89" length="11.20" shape="154.00,301.60 142.80,301.60"/>
    </edge>
    <edge id=":n_1_2_5" function="internal">
        <lane id=":n_1_2_5_0" index="0" speed="8.10" length="2.37" shape="154.00,301.60 151.73,300.91"/>
    </edge>
    <edge id=":n_1_2_9" function="internal">
        <lane id=":n_1_2_9_0" index="0" speed="8.10" length="12.20" shape="151.73,300.91 151.55,300.85 149.80,298.60 148.75,294.85 148.40,289.60"/>
    </edge>
    <edge id=":n_1_2_6" function="internal">
        <lane id=":n_1_2_6_0" index="0" speed="6.51" length="9.03" shape="142.80,295.20 145.25,294.85 147.00,293.80 148.05,292.05 148.40,289.60"/>
    </edge>
    <edge id=":n_1_2_7" function="internal">
        <lane id=":n_1_2_7_0" index="0" speed="13.89" length="11.20" shape="142.80,295.20 154.00,295.20"/>
        <lane id=":n_1_2_7_1" index="1" speed="13.89" length="11.20" shape="142.80,298.40 154.00,298.40"/>
    </edge>
    <edge id=":n_1_3_0" function="internal">
        <lane id=":n_1_3_0_0" index="0" speed="6.51" length="9.03" shape="148.40,457.20 148.05,454.75 147.00,453.00 145.25,451.95 142.80,451.60"/>
    </edge>
    <edge id=":n_1_3_1" function="internal">
        <lane id=":n_1_3_1_0" index="0" speed="8.33" length="11.20" shape="148.40,457.20 148.40,446.00"/>
    </edge>
    <edge id=":n_1_3_2" function="internal">
        <lane id=":n_1_3_2_0" index="0" speed="8.33" length="11.20" shape="154.00,451.60 142.80,451.60"/>
    </edge>
    <edge id=":n_1_3_3" function="internal">
        <lane id=":n_1_3_3_0" index="0" speed="6.51" length="4.11" shape="154.00,451.60 151.55,451.25 150.15,450.41"/>
    </edge>
    <edge id=":n_1_3_4" function="internal">
        <lane id=":n_1_3_4_0" index="0" speed="6.51" length="4.93" shape="150.15,450.41 149.80,450.20 148.75,448.45 148.40,446.00"/>
    </edge>
    <edge id=":n_1_4_0" function="internal">
        <lane id=":n_1_4_0_0" index="0" speed="6.51" length="9.03" shape="142.80,598.40 145.25,598.05 147.00,597.00 148.05,595.25 148.40,592.80"/>
    </edge>
    <edge id=":n_1_4_1" function="internal">
        <lane id=":n_1_4_1_0" index="0" speed="8.33" length="11.20" shape="142.80,598.40 154.00,598.40"/>
    </edge>
    <edge id=":n_2_0_0" function="internal">
        <lane id=":n_2_0_0_0" index="0" speed="7.88" length="13.71" shape="295.20,1.50 295.99,0.14 298.38,-0.82 302.34,-1.41 307.90,-1.60"/>
    </edge>
    <edge id=":n_2_0_1" function="internal">
        <lane id=":n_2_0_1_0" index="0" speed="8.33" length="15.80" shape="292.10,-1.60 307.90,-1.60"/>
    </edge>
    <edge id=":n_2_0_2" function="internal">
        <lane id=":n_2_0_2_0" index="0" speed="7.88" length="13.71" shape="292.10,-1.60 297.66,-1.41 301.62,-0.83 304.01,0.14 304.80,1.50"/>
        <lane id=":n_2_0_2_1" index="1" speed="7.02" length="10.69" shape="292.10,-1.60 296.26,-1.41 299.23,-0.83 301.01,0.14 301.60,1.50"/>
    </edge>
    <edge id=":n_2_1_0" function="internal">
        <lane id=":n_2_1_0_0" index="0" speed="6.51" length="9.03" shape="295.20,160.40 294.85,157.95 293.80,156.20 292.05,155.15 289.60,154.80"/>
    </edge>
    <edge id=":n_2_1_1" function="internal">
        <lane id=":n_2_1_1_0" index="0" speed="13.89" length="20.80" shape="295.20,160.40 295.20,139.60"/>
        <lane id=":n_2_1_1_1" index="1" speed="13.89" length="20.80" shape="298.40,160.40 298.40,139.60"/>
    </edge>
    <edge id=":n_2_1_3" function="internal">
        <lane id=":n_2_1_3_0" index="0" speed="9.26" length="5.01" shape="298.40,160.40 299.11,155.44"/>
    </edge>
    <edge id=":n_2_1_16" function="internal">
        <lane id=":n_2_1_16_0" index="0" speed="9.26" length="14.34" shape="299.11,155.44 299.15,155.15 301.40,151.40 305.15,149.15 310.40,148.40"/>
    </edge>
    <edge id=":n_2_1_4" function="internal">
        <lane id=":n_2_1_4_0" index="0" speed="6.51" length="9.03" shape="310.40,154.80 307.95,155.15 306.20,156.20 305.15,157.95 304.80,160.40"/>
    </edge>
    <edge id=":n_2_1_5" function="internal">
        <lane id=":n_2_1_5_0" index="0" speed="13.89" length="20.80" shape="310.40,154.80 289.60,154.80"/>
        <lane id=":n_2_1_5_1" index="1" speed="13.89" length="20.80" shape="310.40,151.60 289.60,151.60"/>
    </edge>
    <edge id=":n_2_1_7" function="internal">
        <lane id=":n_2_1_7_0" index="0" speed="9.26" length="5.01" shape="310.40,151.60 305.44,150.89"/>
    </edge>
    <edge id=":n_2_1_17" function="internal">
        <lane id=":n_2_1_17_0" index="0" speed="9.26" length="14.34" shape="305.44,150.89 305.15,150.85 301.40,148.60 299.15,144.85 298.40,139.60"/>
    </edge>
    <edge id=":n_2_1_8" function="internal">
        <lane id=":n_2_1_8_0" index="0" speed="6.51" length="9.03" shape="304.80,139.60 305.15,142.05 306.20,143.80 307.95,144.85 310.40,145.20"/>
    </edge>
    <edge id=":n_2_1_9" function="internal">
        <lane id=":n_2_1_9_0" index="0" speed="13.89" length="20.80" shape="304.80,139.60 304.80,160.40"/>
        <lane id=":n_2_1_9_1" index="1" speed="13.89" length="20.80" shape="301.60,139.60 301.60,160.40"/>
    </edge>
    <edge id=":n_2_1_11" function="internal">
        <lane id=":n_2_1_11_0" index="0" speed="9.26" length="5.01" shape="301.60,139.60 300.89,144.56"/>
    </edge>
    <edge id=":n_2_1_18" function="internal">
        <lane id=":n_2_1_18_0" index="0" speed="9.26" length="14.34" shape="300.89,144.56 300.85,144.85 298.60,148.60 294.85,150.85 289.60,151.60"/>
    </edge>
    <edge id=":n_2_1_12" function="internal">
        <lane id=":n_2_1_12_0" index="0" speed="6.51" length="9.03" shape="289.60,145.20 292.05,144.85 293.80,143.80 294.85,142.05 295.20,139.60"/>
    </edge>
    <edge id=":n_2_1_13" function="internal">
        <lane id=":n_2_1_13_0" index="0" speed="13.89" length="20.80" shape="289.60,145.20 310.40,145.20"/>
        <lane id=":n_2_1_13_1" index="1" speed="13.89" length="20.80" shape="289.60,148.40 310.40,148.40"/>
    </edge>
    <edge id=":n_2_1_15" function="internal">
        <lane id=":n_2_1_15_0" index="0" speed="9.26" length="5.01" shape="289.60,148.40 294.56,149.11"/>
    </edge>
    <edge id=":n_2_1_19" function="internal">
        <lane id=":n_2_1_19_0" index="0" speed="9.26" length="14.34" shape="294.56,149.11 294.85,149.15 298.60,151.40 300.85,155.15 301.60,160.40"/>
    </edge>
    <edge id=":n_2_2_0" function="internal">
        <lane id=":n_2_2_0_0" index="0" speed="6.51" length="9.03" shape="295.20,310.40 294.85,307.95 293.80,306.20 292.05,305.15 289.60,304.80"/>
    </edge>
    <edge id=":n_2_2_1" function="internal">
        <lane id=":n_2_2_1_0" index="0" speed="13.89" length="20.80" shape="295.20,310.40 295.20,289.60"/>
        <lane id=":n_2_2_1_1" index="1" speed="13.89" length="20.80" shape="298.40,310.40 298.40,289.60"/>
    </edge>
    <edge id=":n_2_2_3" function="internal">
        <lane id=":n_2_2_3_0" index="0" speed="9.26" length="5.01" shape="298.40,310.40 299.11,305.44"/>
    </edge>
    <edge id=":n_2_2_16" function="internal">
        <lane id=":n_2_2_16_0" index="0" speed="9.26" length="14.34" shape="299.11,305.44 299.15,305.15 301.40,301.40 305.15,299.15 310.40,298.40"/>
    </edge>
    <edge id=":n_2_2_4" function="internal">
        <lane id=":n_2_2_4_0" index="0" speed="6.51" length="9.03" shape="310.40,304.80 307.95,305.15 306.20,306.20 305.15,307.95 304.80,310.40"/>
    </edge>
    <edge id=":n_2_2_5" function="internal">
        <lane id=":n_2_2_5_0" index="0" speed="13.89" length="20.80" shape="310.40,304.80 289.60,304.80"/>
        <lane id=":n_2_2_5_1" index="1" speed="13.89" length="20.80" shape="310.40,301.60 289.60,301.60"/>
    </edge>
    <edge id=":n_2_2_7" function="internal">
        <lane id=":n_2_2_7_0" index="0" speed="9.26" length="5.01" shape="310.40,301.60 305.44,300.89"/>
    </edge>
    <edge id=":n_2_2_17" function="internal">
        <lane id=":n_2_2_17_0" index="0" speed="9.26" length="14.34" shape="305.44,300.89 305.15,300.85 301.40,298.60 299.15,294.85 298.40,289.60"/>
    </edge>
    <edge id=":n_2_2_8" function="internal">
        <lane id=":n_2_2_8_0" index="0" speed="6.51" length="9.03" shape="304.80,289.60 305.15,292.05 306.20,293.80 307.95,294.85 310.40,295.20"/>
    </edge>
    <edge id=":n_2_2_9" function="internal">
        <lane id=":n_2_2_9_0" index="0" speed="13.89" length="20.80" shape="304.80,289.60 304.80,310.40"/>
        <lane id=":n_2_2_9_1" index="1" speed="13.89" length="20.80" shape="301.60,289.60 301.60,310.40"/>
    </edge>
    <edge id=":n_2_2_11" function="internal">
        <lane id=":n_2_2_11_0" index="0" speed="9.26" length="5.01" shape="301.60,289.60 300.89,294.56"/>
    </edge>
    <edge id=":n_2_2_18" function="internal">
        <lane id=":n_2_2_18_0" index="0" speed="9.26" length="14.34" shape="300.89,294.56 300.85,294.85 298.60,298.60 294.85,300.85 289.60,301.60"/>
    </edge>
    <edge id=":n_2_2_12" function="internal">
        <lane id=":n_2_2_12_0" index="0" speed="6.51" length="9.03" shape="289.60,295.20 292.05,294.85 293.80,293.80 294.85,292.05 295.20,289.60"/>
    </edge>
    <edge id=":n_2_2_13" function="internal">
        <lane id=":n_2_2_13_0" index="0" speed="13.89" length="20.80" shape="289.60,295.20 310.40,295.20"/>
        <lane id=":n_2_2_13_1" index="1" speed="13.89" length="20.80" shape="289.60,298.40 310.40,298.40"/>
    </edge>
    <edge id=":n_2_2_15" function="internal">
        <lane id=":n_2_2_15_0" index="0" speed="9.26" length="5.01" shape="289.60,298.40 294.56,299.11"/>
    </edge>
    <edge id=":n_2_2_19" function="internal">
        <lane id=":n_2_2_19_0" index="0" speed="9.26" length="14.34" shape="294.56,299.11 294.85,299.15 298.60,301.40 300.85,305.15 301.60,310.40"/>
    </edge>
    <edge id=":n_2_3_0" function="internal">
        <lane id=":n_2_3_0_0" index="0" speed="6.51" length="9.03" shape="295.20,457.20 294.85,454.75 293.80,453.00 292.05,451.95 289.60,451.60"/>
    </edge>
    <edge id=":n_2_3_1" function="internal">
        <lane id=":n_2_3_1_0" index="0" speed="13.89" length="11.20" shape="295.20,457.20 295.20,446.00"/>
        <lane id=":n_2_3_1_1" index="1" speed="13.89" length="11.20" shape="298.40,457.20 298.40,446.00"/>
    </edge>
    <edge id=":n_2_3_3" function="internal">
        <lane id=":n_2_3_3_0" index="0" speed="6.51" length="9.03" shape="310.40,451.60 307.95,451.95 306.20,453.00 305.15,454.75 304.80,457.20"/>
    </edge>
    <edge id=":n_2_3_4" function="internal">
        <lane id=":n_2_3_4_0" index="0" speed="8.33" length="20.80" shape="310.40,451.60 289.60,451.60"/>
    </edge>
    <edge id=":n_2_3_5" function="internal">
        <lane id=":n_2_3_5_0" index="0" speed="8.10" length="14.57" shape="310.40,451.60 305.15,451.25 301.40,450.20 299.15,448.45 298.40,446.00"/>
    </edge>
    <edge id=":n_2_3_6" function="internal">
        <lane id=":n_2_3_6_0" index="0" speed="13.89" length="11.20" shape="304.80,446.00 304.80,457.20"/>
        <lane id=":n_2_3_6_1" index="1" speed="13.89" length="11.20" shape="301.60,446.00 301.60,457.20"/>
    </edge>
    <edge id=":n_2_3_8" function="internal">
        <lane id=":n_2_3_8_0" index="0" speed="8.10" length="2.37" shape="301.60,446.00 300.91,448.27"/>
    </edge>
    <edge id=":n_2_3_9" function="internal">
        <lane id=":n_2_3_9_0" index="0" speed="8.10" length="12.20" shape="300.91,448.27 300.85,448.45 298.60,450.20 294.85,451.25 289.60,451.60"/>
    </edge>
    <edge id=":n_2_4_0" function="internal">
        <lane id=":n_2_4_0_0" index="0" speed="6.51" length="9.03" shape="304.80,592.80 305.15,595.25 306.20,597.00 307.95,598.05 310.40,598.40"/>
    </edge>
    <edge id=":n_2_4_1" function="internal">
        <lane id=":n_2_4_1_0" index="0" speed="6.51" length="9.03" shape="289.60,598.40 292.05,598.05 293.80,597.00 294.85,595.25 295.20,592.80"/>
        <lane id=":n_2_4_1_1" index="1" speed="7.33" length="11.73" shape="289.60,598.40 293.45,598.05 296.20,597.00 297.85,595.25 298.40,592.80"/>
    </edge>
    <edge id=":n_2_4_3" function="internal">
        <lane id=":n_2_4_3_0" index="0" speed="8.33" length="20.80" shape="289.60,598.40 310.40,598.40"/>
    </edge>
    <edge id=":n_3_0_0" function="internal">
        <lane id=":n_3_0_0_0" index="0" speed="6.51" length="4.11" shape="448.40,4.00 448.75,1.55 449.59,0.15"/>
    </edge>
    <edge id=":n_3_0_2" function="internal">
        <lane id=":n_3_0_2_0" index="0" speed="6.51" length="4.93" shape="449.59,0.15 449.80,-0.20 451.55,-1.25 454.00,-1.60"/>
    </edge>
    <edge id=":n_3_0_1" function="internal">
        <lane id=":n_3_0_1_0" index="0" speed="8.33" length="11.20" shape="442.80,-1.60 454.00,-1.60"/>
    </edge>
    <edge id=":n_3_1_0" function="internal">
        <lane id=":n_3_1_0_0" index="0" speed="6.51" length="9.03" shape="448.40,160.40 448.05,157.95 447.00,156.20 445.25,155.15 442.80,154.80"/>
    </edge>
    <edge id=":n_3_1_1" function="internal">
        <lane id=":n_3_1_1_0" index="0" speed="8.33" length="20.80" shape="448.40,160.40 448.40,139.60"/>
    </edge>
    <edge id=":n_3_1_2" function="internal">
        <lane id=":n_3_1_2_0" index="0" speed="8.10" length="14.57" shape="448.40,160.40 448.75,155.15 449.80,151.40 451.55,149.15 454.00,148.40"/>
    </edge>
    <edge id=":n_3_1_3" function="internal">
        <lane id=":n_3_1_3_0" index="0" speed="13.89" length="11.20" shape="454.00,154.80 442.80,154.80"/>
        <lane id=":n_3_1_3_1" index="1" speed="13.89" length="11.20" shape="454.00,151.60 442.80,151.60"/>
    </edge>
    <edge id=":n_3_1_5" function="internal">
        <lane id=":n_3_1_5_0" index="0" speed="8.10" length="2.37" shape="454.00,151.60 451.73,150.91"/>
    </edge>
    <edge id=":n_3_1_9" function="internal">
        <lane id=":n_3_1_9_0" index="0" speed="8.10" length="12.20" shape="451.73,150.91 451.55,150.85 449.80,148.60 448.75,144.85 448.40,139.60"/>
    </edge>
    <edge id=":n_3_1_6" function="internal">
        <lane id=":n_3_1_6_0" index="0" speed="6.51" length="9.03" shape="442.80,145.20 445.25,144.85 447.00,143.80 448.05,142.05 448.40,139.60"/>
    </edge>
    <edge id=":n_3_1_7" function="internal">
        <lane id=":n_3_1_7_0" index="0" speed="13.89" length="11.20" shape="442.80,145.20 454.00,145.20"/>
        <lane id=":n_3_1_7_1" index="1" speed="13.89" length="11.20" shape="442.80,148.40 454.00,148.40"/>
    </edge>
    <edge id=":n_3_2_0" function="internal">
        <lane id=":n_3_2_0_0" index="0" speed="6.51" length="9.03" shape="448.40,310.40 448.05,307.95 447.00,306.20 445.25,305.15 442.80,304.80"/>
    </edge>
    <edge id=":n_3_2_1" function="internal">
        <lane id=":n_3_2_1_0" index="0" speed="8.33" length="20.80" shape="448.40,310.40 448.40,289.60"/>
    </edge>
    <edge id=":n_3_2_2" function="internal">
        <lane id=":n_3_2_2_0" index="0" speed="8.10" length="14.57" shape="448.40,310.40 448.75,305.15 449.80,301.40 451.55,299.15 454.00,298.40"/>
    </edge>
    <edge id=":n_3_2_3" function="internal">
        <lane id=":n_3_2_3_0" index="0" speed="13.89" length="11.20" shape="454.00,304.80 442.80,304.80"/>
        <lane id=":n_3_2_3_1" index="1" speed="13.89" length="11.20" shape="454.00,301.60 442.80,301.60"/>
    </edge>
    <edge id=":n_3_2_5" function="internal">
        <lane id=":n_3_2_5_0" index="0" speed="8.10" length="2.37" shape="454.00,301.60 451.73,300.91"/>
    </edge>
    <edge id=":n_3_2_9" function="internal">
        <lane id=":n_3_2_9_0" index="0" speed="8.10" length="12.20" shape="451.73,300.91 451.55,300.85 449.80,298.60 448.75,294.85 448.40,289.60"/>
    </edge>
    <edge id=":n_3_2_6" function="internal">
        <lane id=":n_3_2_6_0" index="0" speed="6.51" length="9.03" shape="442.80,295.20 445.25,294.85 447.00,293.80 448.05,292.05 448.40,289.60"/>
    </edge>
    <edge id=":n_3_2_7" function="internal">
        <lane id=":n_3_2_7_0" index="0" speed="13.89" length="11.20" shape="442.80,295.20 454.00,295.20"/>
        <lane id=":n_3_2_7_1" index="1" speed="13.89" length="11.20" shape="442.80,298.40 454.00,298.40"/>
    </edge>
    <edge id=":n_3_3_0" function="internal">
        <lane id=":n_3_3_0_0" index="0" speed="6.51" length="9.03" shape="448.40,457.20 448.05,454.75 447.00,453.00 445.25,451.95 442.80,451.60"/>
    </edge>
    <edge id=":n_3_3_1" function="internal">
        <lane id=":n_3_3_1_0" index="0" speed="8.33" length="11.20" shape="448.40,457.20 448.40,446.00"/>
    </edge>
    <edge id=":n_3_3_2" function="internal">
        <lane id=":n_3_3_2_0" index="0" speed="8.33" length="11.20" shape="454.00,451.60 442.80,451.60"/>
    </edge>
    <edge id=":n_3_3_3" function="internal">
        <lane id=":n_3_3_3_0" index="0" speed="6.51" length="4.11" shape="454.00,451.60 451.55,451.25 450.15,450.41"/>
    </edge>
    <edge id=":n_3_3_4" function="internal">
        <lane id=":n_3_3_4_0" index="0" speed="6.51" length="4.93" shape="450.15,450.41 449.80,450.20 448.75,448.45 448.40,446.00"/>
    </edge>
    <edge id=":n_3_4_0" function="internal">
        <lane id=":n_3_4_0_0" index="0" speed="6.51" length="9.03" shape="442.80,598.40 445.25,598.05 447.00,597.00 448.05,595.25 448.40,592.80"/>
    </edge>
    <edge id=":n_3_4_1" function="internal">
        <lane id=":n_3_4_1_0" index="0" speed="8.33" length="11.20" shape="442.80,598.40 454.00,598.40"/>
    </edge>
    <edge id=":n_4_0_0" function="internal">
        <lane id=":n_4_0_0_0" index="0" speed="3.90" length="2.58" shape="600.00,-1.60 600.70,-1.50 601.20,-1.20 601.50,-0.70 601.60,0.00"/>
    </edge>
    <edge id=":n_4_1_0" function="internal">
        <lane id=":n_4_1_0_0" index="0" speed="8.33" length="15.80" shape="601.60,142.10 601.60,157.90"/>
    </edge>
    <edge id=":n_4_1_1" function="internal">
        <lane id=":n_4_1_1_0" index="0" speed="7.88" length="13.71" shape="601.60,142.10 601.41,147.66 600.83,151.62 599.86,154.01 598.50,154.80"/>
        <lane id=":n_4_1_1_1" index="1" speed="7.02" length="10.69" shape="601.60,142.10 601.41,146.26 600.83,149.22 599.86,151.01 598.50,151.60"/>
    </edge>
    <edge id=":n_4_1_3" function="internal">
        <lane id=":n_4_1_3_0" index="0" speed="7.88" length="13.71" shape="598.50,145.20 599.86,145.99 600.83,148.38 601.41,152.34 601.60,157.90"/>
    </edge>
    <edge id=":n_4_2_0" function="internal">
        <lane id=":n_4_2_0_0" index="0" speed="8.33" length="15.80" shape="601.60,292.10 601.60,307.90"/>
    </edge>
    <edge id=":n_4_2_1" function="internal">
        <lane id=":n_4_2_1_0" index="0" speed="7.88" length="13.71" shape="601.60,292.10 601.41,297.66 600.83,301.62 599.86,304.01 598.50,304.80"/>
        <lane id=":n_4_2_1_1" index="1" speed="7.02" length="10.69" shape="601.60,292.10 601.41,296.26 600.83,299.23 599.86,301.01 598.50,301.60"/>
    </edge>
    <edge id=":n_4_2_3" function="internal">
        <lane id=":n_4_2_3_0" index="0" speed="7.88" length="13.71" shape="598.50,295.20 599.86,295.99 600.83,298.38 601.41,302.34 601.60,307.90"/>
    </edge>
    <edge id=":n_4_3_0" function="internal">
        <lane id=":n_4_3_0_0" index="0" speed="8.33" length="11.20" shape="601.60,446.00 601.60,457.20"/>
    </edge>
    <edge id=":n_4_3_1" function="internal">
        <lane id=":n_4_3_1_0" index="0" speed="6.51" length="9.03" shape="601.60,446.00 601.25,448.45 600.20,450.20 598.45,451.25 596.00,451.60"/>
    </edge>

    <edge id="E_n_0_0_n_0_1" from="n_0_0" to="n_0_1" priority="3">
        <lane id="E_n_0_0_n_0_1_0" index="0" speed="13.89" length="138.10" shape="4.80,1.50 4.80,139.60"/>
        <lane id="E_n_0_0_n_0_1_1" index="1" speed="13.89" length="138.10" shape="1.60,1.50 1.60,139.60"/>
    </edge>
    <edge id="E_n_0_0_n_1_0" from="n_0_0" to="n_1_0" priority="1">
        <lane id="E_n_0_0_n_1_0_0" index="0" speed="8.33" length="134.90" shape="7.90,-1.60 142.80,-1.60"/>
    </edge>
    <edge id="E_n_0_1_n_0_0" from="n_0_1" to="n_0_0" priority="3">
        <lane id="E_n_0_1_n_0_0_0" index="0" speed="13.89" length="138.10" shape="-4.80,139.60 -4.80,1.50"/>
        <lane id="E_n_0_1_n_0_0_1" index="1" speed="13.89" length="138.10" shape="-1.60,139.60 -1.60,1.50"/>
    </edge>
    <edge id="E_n_0_1_n_0_2" from="n_0_1" to="n_0_2" priority="3">
        <lane id="E_n_0_1_n_0_2_0" index="0" speed="13.89" length="129.20" shape="4.80,160.40 4.80,289.60"/>
        <lane id="E_n_0_1_n_0_2_1" index="1" speed="13.89" length="129.20" shape="1.60,160.40 1.60,289.60"/>
    </edge>
    <edge id="E_n_0_1_n_1_1" from="n_0_1" to="n_1_1" priority="3">
        <lane id="E_n_0_1_n_1_1_0" index="0" speed="13.89" length="132.40" shape="10.40,145.20 142.80,145.20"/>
        <lane id="E_n_0_1_n_1_1_1" index="1" speed="13.89" length="132.40" shape="10.40,148.40 142.80,148.40"/>
    </edge>
    <edge id="E_n_0_2_n_0_1" from="n_0_2" to="n_0_1" priority="3">
        <lane id="E_n_0_2_n_0_1_0" index="0" speed="13.89" length="129.20" shape="-4.80,289.60 -4.80,160.40"/>
        <lane id="E_n_0_2_n_0_1_1" index="1" speed="13.89" length="129.20" shape="-1.60,289.60 -1.60,160.40"/>
    </edge>
    <edge id="E_n_0_2_n_0_3" from="n_0_2" to="n_0_3" priority="3">
        <lane id="E_n_0_2_n_0_3_0" index="0" speed="13.89" length="135.60" shape="4.80,310.40 4.80,446.00"/>
        <lane id="E_n_0_2_n_0_3_1" index="1" speed="13.89" length="135.60" shape="1.60,310.40 1.60,446.00"/>
    </edge>
    <edge id="E_n_0_2_n_1_2" from="n_0_2" to="n_1_2" priority="3">
        <lane id="E_n_0_2_n_1_2_0" index="0" speed="13.89" length="132.40" shape="10.40,295.20 142.80,295.20"/>
        <lane id="E_n_0_2_n_1_2_1" index="1" speed="13.89" length="132.40" shape="10.40,298.40 142.80,298.40"/>
    </edge>