<?xml version="1.0" encoding="UTF-8"?>

<!-- generated on 2026-04-28 23:16:20.325808 by Eclipse SUMO randomTrips.py v1.26.0
<configuration>
    <net-file value="scenarios/random/random.net.xml"/>
    <route-file value="scenarios/random/random.rou.xml"/>
    <seed value="775258"/>
    <end value="250.0"/>
    <period value="1.2"/>
</configuration>
-->

<!-- generated on 2026-04-28T23:16:20.315597+01:00 by Eclipse SUMO duarouter 1.26.0
<duarouterConfiguration xmlns:xsi="http://www.w3.org/2001/XMLSchema-instance" xsi:noNamespaceSchemaLocation="http://sumo.dlr.de/xsd/duarouterConfiguration.xsd">

    <input>
        <net-file value="scenarios/random/random.net.xml"/>
        <route-files value="trips.trips.xml"/>
    </input>

    <output>
        <output-file value="scenarios/random/random.rou.xml"/>
        <alternatives-output value="NUL"/>
    </output>

    <time>
        <begin value="0"/>
        <end value="250.0"/>
    </time>

    <report>
        <no-warnings value="true"/>
        <ignore-errors value="true"/>
        <no-step-log value="true"/>
    </report>

</duarouterConfiguration>
-->

<routes xmlns:xsi="http://www.w3.org/2001/XMLSchema-instance" xsi:noNamespaceSchemaLocation="http://sumo.dlr.de/xsd/routes_file.xsd">
    <vehicle id="0" depart="0.00">
        <route edges="E_n_3_3_n_2_3 E_n_2_3_n_1_3 E_n_1_3_n_1_2 E_n_1_2_n_1_1 E_n_1_1_n_0_1 E_n_0_1_n_0_2 E_n_0_2_n_1_2"/>
    </vehicle>
    <vehicle id="1" depart="1.20">
        <route edges="E_n_0_3_n_0_4 E_n_0_4_n_1_4 E_n_1_4_n_1_3 E_n_1_3_n_1_2 E_n_1_2_n_1_1 E_n_1_1_n_1_0"/>
    </vehicle>
    <vehicle id="2" depart="2.40">
        <route edges="E_n_1_1_n_0_1 E_n_0_1_n_0_2 E_n_0_2_n_1_2 E_n_1_2_n_1_1 E_n_1_1_n_1_0 E_n_1_0_n_0_0"/>
    </vehicle>
    <vehicle id="3" depart="3.60">
        <route edges="E_n_1_1_n_1_2 E_n_1_2_n_1_3 E_n_1_3_n_1_4 E_n_1_4_n_0_4"/>
    </vehicle>
    <vehicle id="4" depart="4.80">
        <route edges="E_n_1_0_n_0_0 E_n_0_0_n_0_1 E_n_0_1_n_0_2 E_n_0_2_n_1_2 E_n_1_2_n_2_2 E_n_2_2_n_3_2 E_n_3_2_n_4_2 E_n_4_2_n_4_1 E_n_4_1_n_4_0 E_n_4_0_n_3_0"/>
    </vehicle>
    <vehicle id="5" depart="6.00">
        <route edges="E_n_2_2_n_3_2 E_n_3_2_n_4_2 E_n_4_2_n_4_3 E_n_4_3_n_3_3 E_n_3_3_n_2_3"/>
    </vehicle>
    <vehicle id="6" depart="7.20">
        <route edges="E_n_4_1_n_3_1 E_n_3_1_n_2_1 E_n_2_1_n_2_2 E_n_2_2_n_2_3 E_n_2_3_n_1_3"/>
    </vehicle>
    <vehicle id="7" depart="8.40">
        <route edges="E_n_3_1_n_2_1 E_n_2_1_n_2_2 E_n_2_2_n_2_3"/>
    </vehicle>
    <vehicle id="8" depart="9.60">
        <route edges="E_n_1_3_n_1_2 E_n_1_2_n_2_2 E_n_2_2_n_2_3 E_n_2_3_n_1_3 E_n_1_3_n_0_3"/>
    </vehicle>
    <vehicle id="9" depart="10.80">
        <route edges="E_n_3_0_n_2_0 E_n_2_0_n_1_0 E_n_1_0_n_0_0 E_n_0_0_n_0_1 E_n_0_1_n_0_2 E_n_0_2_n_1_2"/>
    </vehicle>
    <vehicle id="10" depart="12.00">
        <route edges="E_n_4_1_n_3_1 E_n_3_1_n_3_0 E_n_3_0_n_2_0 E_n_2_0_n_1_0 E_n_1_0_n_0_0"/>
    </vehicle>
    <vehicle id="11" depart="13.20">
        <route edges="E_n_0_2_n_1_2 E_n_1_2_n_1_3 E_n_1_3_n_1_4 E_n_1_4_n_2_4 E_n_2_4_n_3_4 E_n_3_4_n_4_4 E_n_4_4_n_4_3 E_n_4_3_n_3_3"/>
    </vehicle>
    <vehicle id="12" depart="14.40">
        <route edges="E_n_3_3_n_2_3 E_n_2_3_n_1_3 E_n_1_3_n_1_2 E_n_1_2_n_1_1 E_n_1_1_n_1_0 E_n_1_0_n_2_0 E_n_2_0_n_3_0 E_n_3_0_n_4_0"/>
    </vehicle>
    <vehicle id="13" depart="15.60">
        <route edges="E_n_1_4_n_1_3 E_n_1_3_n_1_2 E_n_1_2_n_2_2 E_n_2_2_n_3_2"/>
    </vehicle>
    <vehicle id="14" depart="16.80">
        <route edges="E_n_3_3_n_2_3 E_n_2_3_n_1_3 E_n_1_3_n_1_2 E_n_1_2_n_1_1 E_n_1_1_n_1_0 E_n_1_0_n_2_0 E_n_2_0_n_3_0 E_n_3_0_n_4_0 E_n_4_0_n_4_1 E_n_4_1_n_4_2"/>
    </vehicle>
    <vehicle id="15" depart="18.00">
        <route edges="E_n_2_3_n_1_3 E_n_1_3_n_1_2 E_n_1_2_n_1_1 E_n_1_1_n_0_1 E_n_0_1_n_0_2"/>
    </vehicle>
    <vehicle id="16" depart="19.20">
        <route edges="E_n_0_3_n_0_4 E_n_0_4_n_1_4 E_n_1_4_n_2_4 E_n_2_4_n_3_4 E_n_3_4_n_4_4 E_n_4_4_n_4_3"/>
    </vehicle>
    <vehicle id="17" depart="20.40">
        <route edges="E_n_3_3_n_2_3 E_n_2_3_n_2_4 E_n_2_4_n_3_4 E_n_3_4_n_3_3 E_n_3_3_n_3_2 E_n_3_2_n_4_2 E_n_4_2_n_4_3 E_n_4_3_n_4_4 E_n_4_4_n_3_4 E_n_3_4_n_2_4"/>
    </vehicle>
    <vehicle id="18" depart="21.60">
        <route edges="E_n_1_1_n_1_2 E_n_1_2_n_1_3 E_n_1_3_n_1_4 E_n_1_4_n_2_4 E_n_2_4_n_3_4 E_n_3_4_n_3_3 E_n_3_3_n_3_2"/>
    </vehicle>
    <vehicle id="19" depart="22.80">
        <route edges="E_n_3_3_n_2_3 E_n_2_3_n_2_4 E_n_2_4_n_1_4 E_n_1_4_n_1_3"/>
    </vehicle>
    <vehicle id="20" depart="24.00">
        <route edges="E_n_4_3_n_4_4 E_n_4_4_n_3_4 E_n_3_4_n_2_4 E_n_2_4_n_1_4 E_n_1_4_n_1_3 E_n_1_3_n_1_2 E_n_1_2_n_2_2 E_n_2_2_n_3_2"/>
    </vehicle>
    <vehicle id="21" depart="25.20">
        <route edges="E_n_0_0_n_1_0 E_n_1_0_n_1_1 E_n_1_1_n_0_1 E_n_0_1_n_0_2 E_n_0_2_n_1_2 E_n_1_2_n_1_1"/>
    </vehicle>
    <vehicle id="22" depart="26.40">
        <route edges="E_n_1_0_n_0_0 E_n_0_0_n_0_1 E_n_0_1_n_0_2 E_n_0_2_n_1_2 E_n_1_2_n_2_2 E_n_2_2_n_3_2 E_n_3_2_n_4_2 E_n_4_2_n_4_3 E_n_4_3_n_4_4"/>
    </vehicle>
    <vehicle id="23" depart="27.60">
        <route edges="E_n_2_0_n_1_0 E_n_1_0_n_1_1 E_n_1_1_n_1_2 E_n_1_2_n_2_2 E_n_2_2_n_2_3 E_n_2_3_n_1_3"/>
    </vehicle>
    <vehicle id="24" depart="28.80">
        <route edges="E_n_0_4_n_1_4 E_n_1_4_n_2_4 E_n_2_4_n_3_4 E_n_3_4_n_3_3 E_n_3_3_n_2_3 E_n_2_3_n_1_3 E_n_1_3_n_1_4"/>
    </vehicle>
    <vehicle id="25" depart="30.00">
        <route edges="E_n_4_2_n_4_1 E_n_4_1_n_3_1 E_n_3_1_n_2_1 E_n_2_1_n_2_2 E_n_2_2_n_3_2 E_n_3_2_n_4_2"/>
    </vehicle>
    <vehicle id="26" depart="31.20">
        <route edges="E_n_0_3_n_0_4 E_n_0_4_n_1_4 E_n_1_4_n_2_4 E_n_2_4_n_3_4 E_n_3_4_n_4_4 E_n_4_4_n_4_3 E_n_4_3_n_4_2 E_n_4_2_n_4_1 E_n_4_1_n_4_0 E_n_4_0_n_3_0 E_n_3_0_n_2_0"/>
    </vehicle>
    <vehicle id="27" depart="32.40">
        <route edges="E_n_4_3_n_4_2 E_n_4_2_n_4_1 E_n_4_1_n_4_0 E_n_4_0_n_3_0 E_n_3_0_n_2_0 E_n_2_0_n_1_0 E_n_1_0_n_1_1 E_n_1_1_n_1_2 E_n_1_2_n_1_3 E_n_1_3_n_1_4 E_n_1_4_n_0_4"/>
    </vehicle>
    <vehicle id="28" depart="33.60">
        <route edges="E_n_2_0_n_1_0 E_n_1_0_n_1_1 E_n_1_1_n_1_2 E_n_1_2_n_2_2 E_n_2_2_n_3_2 E_n_3_2_n_4_2 E_n_4_2_n_4_3"/>
    </vehicle>
    <vehicle id="29" depart="34.80">
        <route edges="E_n_2_0_n_3_0 E_n_3_0_n_4_0 E_n_4_0_n_4_1 E_n_4_1_n_4_2"/>
    </vehicle>
    <vehicle id="30" depart="36.00">
        <route edges="E_n_1_2_n_1_3 E_n_1_3_n_1_4 E_n_1_4_n_2_4 E_n_2_4_n_3_4 E_n_3_4_n_4_4 E_n_4_4_n_4_3 E_n_4_3_n_4_2 E_n_4_2_n_4_1"/>
    </vehicle>
    <vehicle id="31" depart="37.20">
        <route edges="E_n_3_3_n_2_3 E_n_2_3_n_2_4 E_n_2_4_n_3_4 E_n_3_4_n_3_3 E_n_3_3_n_3_2 E_n_3_2_n_3_1 E_n_3_1_n_3_0"/>
    </vehicle>
    <vehicle id="32" depart="38.40">
        <route edges="E_n_4_4_n_3_4 E_n_3_4_n_3_3 E_n_3_3_n_2_3 E_n_2_3_n_2_4 E_n_2_4_n_3_4"/>
    </vehicle>
    <vehicle id="33" depart="39.60">
        <route edges="E_n_4_1_n_4_2 E_n_4_2_n_4_3 E_n_4_3_n_4_4 E_n_4_4_n_3_4 E_n_3_4_n_2_4 E_n_2_4_n_1_4 E_n_1_4_n_1_3 E_n_1_3_n_1_2 E_n_1_2_n_1_1 E_n_1_1_n_0_1 E_n_0_1_n_0_2 E_n_0_2_n_1_2"/>
    </vehicle>
    <vehicle id="34" depart="40.80">
        <route edges="E_n_4_1_n_3_1 E_n_3_1_n_2_1 E_n_2_1_n_2_2 E_n_2_2_n_2_3 E_n_2_3_n_1_3 E_n_1_3_n_1_2 E_n_1_2_n_1_1"/>
    </vehicle>
    <vehicle id="35" depart="42.00">
        <route edges="E_n_1_1_n_1_0 E_n_1_0_n_2_0 E_n_2_0_n_3_0 E_n_3_0_n_4_0 E_n_4_0_n_4_1 E_n_4_1_n_4_2 E_n_4_2_n_4_3 E_n_4_3_n_3_3 E_n_3_3_n_3_2"/>
    </vehicle>
    <vehicle id="36" depart="43.20">
        <route edges="E_n_0_1_n_0_2 E_n_0_2_n_1_2 E_n_1_2_n_1_3 E_n_1_3_n_1_4 E_n_1_4_n_2_4 E_n_2_4_n_3_4 E_n_3_4_n_3_3"/>
    </vehicle>
    <vehicle id="37" depart="44.40">
        <route edges="E_n_4_2_n_4_1 E_n_4_1_n_3_1 E_n_3_1_n_2_1 E_n_2_1_n_1_1 E_n_1_1_n_0_1 E_n_0_1_n_0_2 E_n_0_2_n_0_3"/>
    </vehicle>
    <vehicle id="38" depart="45.60">
        <route edges="E_n_4_0_n_4_1 E_n_4_1_n_4_2 E_n_4_2_n_4_3 E_n_4_3_n_4_4 E_n_4_4_n_3_4 E_n_3_4_n_2_4 E_n_2_4_n_1_4 E_n_1_4_n_1_3 E_n_1_3_n_1_2"/>
    </vehicle>
    <vehicle id="39" depart="46.80">
        <route edges="E_n_2_0_n_3_0 E_n_3_0_n_4_0 E_n_4_0_n_4_1 E_n_4_1_n_4_2 E_n_4_2_n_4_3 E_n_4_3_n_3_3"/>
    </vehicle>
    <vehicle id="40" depart="48.00">
        <route edges="E_n_0_2_n_0_3 E_n_0_3_n_0_4 E_n_0_4_n_1_4 E_n_1_4_n_2_4 E_n_2_4_n_3_4 E_n_3_4_n_3_3 E_n_3_3_n_2_3"/>
    </vehicle>
    <vehicle id="41" depart="49.20">
        <route edges="E_n_3_3_n_2_3 E_n_2_3_n_1_3 E_n_1_3_n_1_2 E_n_1_2_n_1_1 E_n_1_1_n_1_0 E_n_1_0_n_2_0 E_n_2_0_n_3_0 E_n_3_0_n_4_0 E_n_4_0_n_4_1 E_n_4_1_n_4_2"/>
    </vehicle>
    <vehicle id="42" depart="50.40">
        <route edges="E_n_4_0_n_3_0 E_n_3_0_n_2_0 E_n_2_0_n_2_1 E_n_2_1_n_2_2 E_n_2_2_n_3_2 E_n_3_2_n_4_2 E_n_4_2_n_4_3 E_n_4_3_n_4_4 E_n_4_4_n_3_4 E_n_3_4_n_2_4"/>
    </vehicle>
    <vehicle id="43" depart="51.60">
        <route edges="E_n_3_3_n_3_2"/>
    </vehicle>
    <vehicle id="44" depart="52.80">
        <route edges="E_n_0_0_n_0_1 E_n_0_1_n_0_2 E_n_0_2_n_1_2 E_n_1_2_n_2_2 E_n_2_2_n_3_2 E_n_3_2_n_4_2 E_n_4_2_n_4_3 E_n_4_3_n_4_4 E_n_4_4_n_3_4 E_n_3_4_n_2_4"/>
    </vehicle>
    <vehicle id="45" depart="54.00">
        <route edges="E_n_2_3_n_2_4 E_n_2_4_n_3_4 E_n_3_4_n_3_3 E_n_3_3_n_3_2 E_n_3_2_n_3_1 E_n_3_1_n_2_1 E_n_2_1_n_1_1 E_n_1_1_n_1_2"/>
    </vehicle>
    <vehicle id="46" depart="55.20">
        <route edges="E_n_2_0_n_1_0 E_n_1_0_n_1_1 E_n_1_1_n_1_2 E_n_1_2_n_2_2 E_n_2_2_n_2_3 E_n_2_3_n_1_3 E_n_1_3_n_1_2"/>
    </vehicle>
    <vehicle id="47" depart="56.40">
        <route edges="E_n_1_4_n_1_3 E_n_1_3_n_1_2 E_n_1_2_n_2_2 E_n_2_2_n_2_3 E_n_2_3_n_1_3"/>
    </vehicle>
    <vehicle id="48" depart="57.60">
        <route edges="E_n_4_2_n_4_1 E_n_4_1_n_4_0 E_n_4_0_n_3_0 E_n_3_0_n_2_0 E_n_2_0_n_1_0 E_n_1_0_n_0_0 E_n_0_0_n_0_1"/>
    </vehicle>
    <vehicle id="49" depart="58.80">
        <route edges="E_n_0_2_n_0_3 E_n_0_3_n_0_4 E_n_0_4_n_1_4 E_n_1_4_n_2_4 E_n_2_4_n_3_4 E_n_3_4_n_4_4 E_n_4_4_n_4_3 E_n_4_3_n_4_2 E_n_4_2_n_4_1"/>
    </vehicle>
    <vehicle id="50" depart="60.00">
        <route edges="E_n_1_0_n_2_0 E_n_2_0_n_2_1 E_n_2_1_n_2_2 E_n_2_2_n_2_3 E_n_2_3_n_1_3 E_n_1_3_n_1_2 E_n_1_2_n_1_1"/>
    </vehicle>
    <vehicle id="51" depart="61.20">
        <route edges="E_n_2_2_n_2_3 E_n_2_3_n_1_3 E_n_1_3_n_1_2 E_n_1_2_n_1_1 E_n_1_1_n_1_0 E_n_1_0_n_2_0 E_n_2_0_n_3_0 E_n_3_0_n_4_0"/>
    </vehicle>
    <vehicle id="52" depart="62.40">
        <route edges="E_n_4_1_n_4_0 E_n_4_0_n_3_0 E_n_3_0_n_2_0 E_n_2_0_n_2_1 E_n_2_1_n_2_2 E_n_2_2_n_2_3 E_n_2_3_n_2_4"/>
    </vehicle>
    <vehicle id="53" depart="63.60">
        <route edges="E_n_4_1_n_4_0 E_n_4_0_n_3_0 E_n_3_0_n_2_0 E_n_2_0_n_2_1 E_n_2_1_n_2_2 E_n_2_2_n_3_2 E_n_3_2_n_4_2 E_n_4_2_n_4_3 E_n_4_3_n_4_4 E_n_4_4_n_3_4"/>
    </vehicle>
    <vehicle id="54" depart="64.80">
        <route edges="E_n_3_2_n_3_1 E_n_3_1_n_2_1 E_n_2_1_n_2_2 E_n_2_2_n_2_3"/>
    </vehicle>
    <vehicle id="55" depart="66.00">
        <route edges="E_n_1_4_n_2_4 E_n_2_4_n_3_4 E_n_3_4_n_3_3 E_n_3_3_n_3_2 E_n_3_2_n_3_1 E_n_3_1_n_2_1 E_n_2_1_n_2_2"/>
    </vehicle>
    <vehicle id="56" depart="67.20">
        <route edges="E_n_2_4_n_3_4 E_n_3_4_n_3_3 E_n_3_3_n_2_3 E_n_2_3_n_1_3 E_n_1_3_n_0_3 E_n_0_3_n_0_4 E_n_0_4_n_1_4"/>
    </vehicle>
    <vehicle id="57" depart="68.40">
        <route edges="E_n_2_1_n_2_2 E_n_2_2_n_2_3 E_n_2_3_n_2_4 E_n_2_4_n_1_4"/>
    </vehicle>
    <vehicle id="58" depart="69.60">
        <route edges="E_n_1_3_n_0_3 E_n_0_3_n_0_4 E_n_0_4_n_1_4 E_n_1_4_n_1_3 E_n_1_3_n_1_2 E_n_1_2_n_1_1 E_n_1_1_n_1_0 E_n_1_0_n_2_0 E_n_2_0_n_2_1 E_n_2_1_n_1_1"/>
    </vehicle>
    <vehicle id="59" depart="70.80">
        <route edges="E_n_0_0_n_0_1 E_n_0_1_n_0_2 E_n_0_2_n_1_2 E_n_1_2_n_1_1 E_n_1_1_n_1_0 E_n_1_0_n_2_0 E_n_2_0_n_3_0 E_n_3_0_n_4_0"/>
    </vehicle>
    <vehicle id="60" depart="72.00">
        <route edges="E_n_3_4_n_4_4 E_n_4_4_n_4_3 E_n_4_3_n_4_2 E_n_4_2_n_4_1 E_n_4_1_n_3_1 E_n_3_1_n_2_1 E_n_2_1_n_1_1 E_n_1_1_n_1_0"/>
    </vehicle>
    <vehicle id="61" depart="73.20">
        <route edges="E_n_1_3_n_0_3 E_n_0_3_n_0_4 E_n_0_4_n_1_4 E_n_1_4_n_2_4 E_n_2_4_n_3_4 E_n_3_4_n_3_3 E_n_3_3_n_3_2 E_n_3_2_n_4_2"/>
    </vehicle>
    <vehicle id="62" depart="74.40">
        <route edges="E_n_3_4_n_4_4 E_n_4_4_n_4_3 E_n_4_3_n_3_3 E_n_3_3_n_2_3 E_n_2_3_n_1_3 E_n_1_3_n_0_3"/>
    </vehicle>
    <vehicle id="63" depart="75.60">
        <route edges="E_n_3_4_n_3_3 E_n_3_3_n_2_3 E_n_2_3_n_1_3 E_n_1_3_n_1_2 E_n_1_2_n_2_2 E_n_2_2_n_2_3"/>
    </vehicle>
    <vehicle id="64" depart="76.80">
        <route edges="E_n_4_4_n_4_3 E_n_4_3_n_3_3 E_n_3_3_n_2_3 E_n_2_3_n_1_3"/>
    </vehicle>
    <vehicle id="65" depart="78.00">
        <route edges="E_n_2_2_n_2_3 E_n_2_3_n_2_4 E_n_2_4_n_3_4 E_n_3_4_n_3_3"/>
    </vehicle>
    <vehicle id="66" depart="79.20">
        <route edges="E_n_2_0_n_2_1 E_n_2_1_n_2_2 E_n_2_2_n_2_3 E_n_2_3_n_2_4 E_n_2_4_n_3_4 E_n_3_4_n_4_4 E_n_4_4_n_4_3 E_n_4_3_n_4_2"/>
    </vehicle>
    <vehicle id="67" depart="80.40">
        <route edges="E_n_1_0_n_1_1 E_n_1_1_n_1_2 E_n_1_2_n_1_3 E_n_1_3_n_1_4 E_n_1_4_n_2_4 E_n_2_4_n_3_4 E_n_3_4_n_3_3 E_n_3_3_n_2_3"/>
    </vehicle>
    <vehicle id="68" depart="81.60">
        <route edges="E_n_2_0_n_3_0 E_n_3_0_n_4_0 E_n_4_0_n_4_1 E_n_4_1_n_4_2 E_n_4_2_n_4_3 E_n_4_3_n_3_3 E_n_3_3_n_3_2 E_n_3_2_n_4_2 E_n_4_2_n_4_1 E_n_4_1_n_4_0"/>
    </vehicle>
    <vehicle id="69" depart="82.80">
        <route edges="E_n_2_2_n_2_3 E_n_2_3_n_2_4 E_n_2_4_n_3_4 E_n_3_4_n_3_3"/>
    </vehicle>
    <vehicle id="70" depart="84.00">
        <route edges="E_n_1_2_n_1_3 E_n_1_3_n_1_4 E_n_1_4_n_2_4 E_n_2_4_n_3_4 E_n_3_4_n_4_4 E_n_4_4_n_4_3 E_n_4_3_n_3_3"/>
    </vehicle>
    <vehicle id="71" depart="85.20">
        <route edges="E_n_1_0_n_0_0 E_n_0_0_n_0_1 E_n_0_1_n_0_2 E_n_0_2_n_1_2 E_n_1_2_n_2_2 E_n_2_2_n_3_2 E_n_3_2_n_4_2 E_n_4_2_n_4_3 E_n_4_3_n_4_4 E_n_4_4_n_3_4 E_n_3_4_n_2_4"/>
    </vehicle>
    <vehicle id="72" depart="86.40">
        <route edges="E_n_1_2_n_1_1 E_n_1_1_n_1_0 E_n_1_0_n_0_0"/>
    </vehicle>
    <vehicle id="73" depart="87.60">
        <route edges="E_n_0_0_n_1_0 E_n_1_0_n_1_1 E_n_1_1_n_1_2 E_n_1_2_n_2_2 E_n_2_2_n_2_3 E_n_2_3_n_2_4 E_n_2_4_n_1_4"/>
    </vehicle>
    <vehicle id="74" depart="88.80">
        <route edges="E_n_3_3_n_3_2 E_n_3_2_n_4_2 E_n_4_2_n_4_3 E_n_4_3_n_3_3 E_n_3_3_n_2_3"/>
    </vehicle>
    <vehicle id="75" depart="90.00">
        <route edges="E_n_4_2_n_4_3 E_n_4_3_n_4_4 E_n_4_4_n_3_4 E_n_3_4_n_2_4 E_n_2_4_n_1_4 E_n_1_4_n_1_3 E_n_1_3_n_1_2 E_n_1_2_n_2_2 E_n_2_2_n_3_2"/>
    </vehicle>
    <vehicle id="76" depart="91.20">
        <route edges="E_n_0_4_n_1_4 E_n_1_4_n_2_4 E_n_2_4_n_3_4 E_n_3_4_n_4_4"/>
    </vehicle>
    <vehicle id="77" depart="92.40">
        <route edges="E_n_3_2_n_3_1 E_n_3_1_n_2_1 E_n_2_1_n_1_1 E_n_1_1_n_0_1"/>
    </vehicle>
    <vehicle id="78" depart="93.60">
        <route edges="E_n_3_2_n_3_1 E_n_3_1_n_2_1 E_n_2_1_n_1_1 E_n_1_1_n_0_1 E_n_0_1_n_0_2 E_n_0_2_n_1_2"/>
    </vehicle>
    <vehicle id="79" depart="94.80">
        <route edges="E_n_3_2_n_3_1 E_n_3_1_n_3_0 E_n_3_0_n_2_0 E_n_2_0_n_1_0 E_n_1_0_n_1_1"/>
    </vehicle>
    <vehicle id="80" depart="96.00">
        <route edges="E_n_1_1_n_1_2 E_n_1_2_n_1_3 E_n_1_3_n_1_4 E_n_1_4_n_2_4 E_n_2_4_n_3_4 E_n_3_4_n_3_3"/>
    </vehicle>
    <vehicle id="81" depart="97.20">
        <route edges="E_n_3_4_n_2_4 E_n_2_4_n_1_4 E_n_1_4_n_1_3 E_n_1_3_n_0_3 E_n_0_3_n_0_4 E_n_0_4_n_1_4 E_n_1_4_n_2_4 E_n_2_4_n_3_4 E_n_3_4_n_4_4 E_n_4_4_n_4_3"/>
    </vehicle>
    <vehicle id="82" depart="98.40">
        <route edges="E_n_4_4_n_4_3 E_n_4_3_n_4_2 E_n_4_2_n_4_1 E_n_4_1_n_3_1 E_n_3_1_n_3_0 E_n_3_0_n_4_0 E_n_4_0_n_4_1"/>
    </vehicle>
    <vehicle id="83" depart="99.60">
        <route edges="E_n_0_2_n_0_3 E_n_0_3_n_0_4 E_n_0_4_n_1_4 E_n_1_4_n_2_4 E_n_2_4_n_3_4 E_n_3_4_n_4_4 E_n_4_4_n_4_3 E_n_4_3_n_4_2 E_n_4_2_n_4_1"/>
    </vehicle>
    <vehicle id="84" depart="100.80">
        <route edges="E_n_3_4_n_4_4 E_n_4_4_n_4_3 E_n_4_3_n_3_3 E_n_3_3_n_2_3 E_n_2_3_n_2_4"/>
    </vehicle>
    <vehicle id="85" depart="102.00">
        <route edges="E_n_2_2_n_2_3 E_n_2_3_n_2_4 E_n_2_4_n_3_4 E_n_3_4_n_3_3 E_n_3_3_n_3_2 E_n_3_2_n_4_2 E_n_4_2_n_4_3 E_n_4_3_n_4_4 E_n_4_4_n_3_4 E_n_3_4_n_2_4"/>
    </vehicle>
    <vehicle id="86" depart="103.20">
        <route edges="E_n_1_3_n_1_4 E_n_1_4_n_2_4 E_n_2_4_n_3_4 E_n_3_4_n_3_3 E_n_3_3_n_3_2 E_n_3_2_n_3_1"/>
    </vehicle>
    <vehicle id="87" depart="104.40">
        <route edges="E_n_1_0_n_1_1 E_n_1_1_n_1_2 E_n_1_2_n_2_2 E_n_2_2_n_3_2 E_n_3_2_n_4_2"/>
    </vehicle>
    <vehicle id="88" depart="105.60">
        <route edges="E_n_3_0_n_4_0 E_n_4_0_n_4_1 E_n_4_1_n_4_2 E_n_4_2_n_4_3 E_n_4_3_n_3_3 E_n_3_3_n_2_3 E_n_2_3_n_1_3 E_n_1_3_n_1_4 E_n_1_4_n_2_4"/>
    </vehicle>
    <vehicle id="89" depart="106.80">
        <route edges="E_n_2_2_n_3_2 E_n_3_2_n_3_1 E_n_3_1_n_3_0 E_n_3_0_n_4_0"/>
    </vehicle>
    <vehicle id="90" depart="108.00">
        <route edges="E_n_1_4_n_2_4 E_n_2_4_n_3_4 E_n_3_4_n_3_3"/>
    </vehicle>
    <vehicle id="91" depart="109.20">
        <route edges="E_n_2_0_n_2_1 E_n_2_1_n_2_2 E_n_2_2_n_3_2 E_n_3_2_n_4_2"/>
    </vehicle>
    <vehicle id="92" depart="110.40">
        <route edges="E_n_1_3_n_1_4 E_n_1_4_n_2_4 E_n_2_4_n_3_4 E_n_3_4_n_4_4 E_n_4_4_n_4_3 E_n_4_3_n_4_2 E_n_4_2_n_4_1 E_n_4_1_n_3_1"/>
    </vehicle>
    <vehicle id="93" depart="111.60">
        <route edges="E_n_3_2_n_3_1 E_n_3_1_n_3_0 E_n_3_0_n_2_0 E_n_2_0_n_1_0 E_n_1_0_n_0_0 E_n_0_0_n_0_1"/>
    </vehicle>
    <vehicle id="94" depart="112.80">
        <route edges="E_n_4_1_n_4_2 E_n_4_2_n_4_3 E_n_4_3_n_4_4 E_n_4_4_n_3_4 E_n_3_4_n_2_4 E_n_2_4_n_1_4 E_n_1_4_n_1_3 E_n_1_3_n_1_2 E_n_1_2_n_1_1"/>
    </vehicle>
    <vehicle id="95" depart="114.00">
        <route edges="E_n_1_3_n_1_2 E_n_1_2_n_1_1 E_n_1_1_n_1_0 E_n_1_0_n_2_0 E_n_2_0_n_2_1 E_n_2_1_n_1_1"/>
    </vehicle>
    <vehicle id="96" depart="115.20">
        <route edges="E_n_4_3_n_3_3 E_n_3_3_n_2_3"/>
    </vehicle>
    <vehicle id="97" depart="116.40">
        <route edges="E_n_4_3_n_4_4 E_n_4_4_n_3_4 E_n_3_4_n_3_3 E_n_3_3_n_3_2 E_n_3_2_n_4_2 E_n_4_2_n_4_3"/>
    </vehicle>
    <vehicle id="98" depart="117.60">
        <route edges="E_n_1_3_n_1_4 E_n_1_4_n_2_4 E_n_2_4_n_3_4 E_n_3_4_n_3_3 E_n_3_3_n_2_3 E_n_2_3_n_1_3 E_n_1_3_n_1_2 E_n_1_2_n_1_1 E_n_1_1_n_0_1 E_n_0_1_n_0_2 E_n_0_2_n_0_3"/>
    </vehicle>
    <vehicle id="99" depart="118.80">
        <route edges="E_n_4_2_n_4_1 E_n_4_1_n_3_1 E_n_3_1_n_2_1 E_n_2_1_n_1_1 E_n_1_1_n_1_0 E_n_1_0_n_2_0"/>
    </vehicle>
    <vehicle id="100" depart="120.00">
        <route edges="E_n_4_3_n_4_4 E_n_4_4_n_3_4 E_n_3_4_n_3_3 E_n_3_3_n_3_2 E_n_3_2_n_4_2"/>
    </vehicle>
    <vehicle id="101" depart="121.20">
        <route edges="E_n_3_3_n_2_3 E_n_2_3_n_1_3 E_n_1_3_n_1_2 E_n_1_2_n_1_1 E_n_1_1_n_1_0 E_n_1_0_n_2_0"/>
    </vehicle>
    <vehicle id="102" depart="122.40">
        <route edges="E_n_0_1_n_0_2 E_n_0_2_n_1_2 E_n_1_2_n_2_2 E_n_2_2_n_3_2 E_n_3_2_n_4_2 E_n_4_2_n_4_1 E_n_4_1_n_3_1"/>
    </vehicle>
    <vehicle id="103" depart="123.60">
        <route edges="E_n_1_2_n_1_1 E_n_1_1_n_1_0 E_n_1_0_n_2_0"/>
    </vehicle>
    <vehicle id="104" depart="124.80">
        <route edges="E_n_1_4_n_1_3 E_n_1_3_n_1_2 E_n_1_2_n_2_2 E_n_2_2_n_3_2 E_n_3_2_n_4_2 E_n_4_2_n_4_1 E_n_4_1_n_4_0 E_n_4_0_n_3_0"/>
    </vehicle>
    <vehicle id="105" depart="126.00">
        <route edges="E_n_1_2_n_2_2 E_n_2_2_n_3_2 E_n_3_2_n_3_1 E_n_3_1_n_2_1 E_n_2_1_n_1_1 E_n_1_1_n_1_2 E_n_1_2_n_1_3"/>
    </vehicle>
    <vehicle id="106" depart="127.20">
        <route edges="E_n_4_0_n_4_1 E_n_4_1_n_4_2 E_n_4_2_n_4_3 E_n_4_3_n_3_3 E_n_3_3_n_2_3"/>
    </vehicle>
    <vehicle id="107" depart="128.40">
        <route edges="E_n_4_1_n_4_2 E_n_4_2_n_4_3 E_n_4_3_n_4_4 E_n_4_4_n_3_4 E_n_3_4_n_2_4 E_n_2_4_n_1_4 E_n_1_4_n_1_3 E_n_1_3_n_1_2"/>
    </vehicle>
    <vehicle id="108" depart="129.60">
        <route edges="E_n_1_0_n_0_0 E_n_0_0_n_0_1 E_n_0_1_n_0_2 E_n_0_2_n_1_2 E_n_1_2_n_1_3 E_n_1_3_n_1_4"/>
    </vehicle>
    <vehicle id="109" depart="130.80">
        <route edges="E_n_1_2_n_1_1 E_n_1_1_n_0_1 E_n_0_1_n_0_2 E_n_0_2_n_0_3"/>
    </vehicle>
    <vehicle id="110" depart="132.00">
        <route edges="E_n_1_4_n_1_3 E_n_1_3_n_1_2 E_n_1_2_n_2_2 E_n_2_2_n_3_2 E_n_3_2_n_3_1 E_n_3_1_n_3_0"/>
    </vehicle>
    <vehicle id="111" depart="133.20">
        <route edges="E_n_0_0_n_1_0 E_n_1_0_n_1_1 E_n_1_1_n_1_2 E_n_1_2_n_2_2 E_n_2_2_n_2_3 E_n_2_3_n_1_3"/>
    </vehicle>
    <vehicle id="112" depart="134.40">
        <route edges="E_n_3_4_n_4_4 E_n_4_4_n_4_3 E_n_4_3_n_3_3 E_n_3_3_n_2_3 E_n_2_3_n_1_3 E_n_1_3_n_1_2 E_n_1_2_n_1_1 E_n_1_1_n_0_1 E_n_0_1_n_0_2 E_n_0_2_n_0_3"/>
    </vehicle>
    <vehicle id="113" depart="135.60">
        <route edges="E_n_4_0_n_3_0 E_n_3_0_n_2_0 E_n_2_0_n_1_0 E_n_1_0_n_1_1 E_n_1_1_n_1_2 E_n_1_2_n_1_3 E_n_1_3_n_1_4"/>
    </vehicle>
    <vehicle id="114" depart="136.80">
        <route edges="E_n_4_3_n_4_2 E_n_4_2_n_4_1 E_n_4_1_n_3_1 E_n_3_1_n_2_1 E_n_2_1_n_2_2 E_n_2_2_n_2_3 E_n_2_3_n_2_4"/>
    </vehicle>
    <vehicle id="115" depart="138.00">
        <route edges="E_n_1_3_n_1_4 E_n_1_4_n_2_4 E_n_2_4_n_3_4 E_n_3_4_n_3_3 E_n_3_3_n_3_2 E_n_3_2_n_4_2"/>
    </vehicle>
    <vehicle id="116" depart="139.20">
        <route edges="E_n_0_3_n_0_4 E_n_0_4_n_1_4 E_n_1_4_n_1_3 E_n_1_3_n_1_2"/>
    </vehicle>
    <vehicle id="117" depart="140.40">
        <route edges="E_n_1_3_n_1_4 E_n_1_4_n_2_4 E_n_2_4_n_3_4 E_n_3_4_n_3_3 E_n_3_3_n_3_2 E_n_3_2_n_4_2"/>
    </vehicle>
    <vehicle id="118" depart="141.60">
        <route edges="E_n_4_2_n_4_3"/>
    </vehicle>
    <vehicle id="119" depart="142.80">
        <route edges="E_n_1_2_n_1_3 E_n_1_3_n_1_4"/>
    </vehicle>
    <vehicle id="120" depart="144.00">
        <route edges="E_n_2_0_n_1_0 E_n_1_0_n_0_0"/>
    </vehicle>
    <vehicle id="121" depart="145.20">
        <route edges="E_n_2_1_n_1_1 E_n_1_1_n_1_2 E_n_1_2_n_2_2 E_n_2_2_n_2_3 E_n_2_3_n_1_3"/>
    </vehicle>
    <vehicle id="122" depart="146.40">
        <route edges="E_n_0_0_n_0_1 E_n_0_1_n_0_2 E_n_0_2_n_1_2 E_n_1_2_n_1_3 E_n_1_3_n_0_3"/>
    </vehicle>
    <vehicle id="123" depart="147.60">
        <route edges="E_n_1_2_n_2_2 E_n_2_2_n_2_3 E_n_2_3_n_2_4 E_n_2_4_n_3_4 E_n_3_4_n_4_4 E_n_4_4_n_4_3"/>
    </vehicle>
    <vehicle id="124" depart="148.80">
        <route edges="E_n_4_2_n_4_1 E_n_4_1_n_3_1 E_n_3_1_n_3_0 E_n_3_0_n_4_0 E_n_4_0_n_4_1 E_n_4_1_n_4_2 E_n_4_2_n_4_3 E_n_4_3_n_4_4 E_n_4_4_n_3_4"/>
    </vehicle>
    <vehicle id="125" depart="150.00">
        <route edges="E_n_4_1_n_4_2 E_n_4_2_n_4_3 E_n_4_3_n_3_3 E_n_3_3_n_3_2 E_n_3_2_n_3_1 E_n_3_1_n_2_1 E_n_2_1_n_1_1"/>
    </vehicle>
    <vehicle id="126" depart="151.20">
        <route edges="E_n_0_4_n_1_4 E_n_1_4_n_1_3 E_n_1_3_n_1_2 E_n_1_2_n_1_1"/>
    </vehicle>
    <vehicle id="127" depart="152.40">
        <route edges="E_n_1_2_n_1_1 E_n_1_1_n_1_0 E_n_1_0_n_2_0 E_n_2_0_n_2_1 E_n_2_1_n_2_2 E_n_2_2_n_3_2 E_n_3_2_n_4_2 E_n_4_2_n_4_1"/>
    </vehicle>
    <vehicle id="128" depart="153.60">
        <route edges="E_n_1_1_n_1_0 E_n_1_0_n_0_0 E_n_0_0_n_0_1 E_n_0_1_n_0_2 E_n_0_2_n_1_2 E_n_1_2_n_1_1"/>
    </vehicle>
    <vehicle id="129" depart="154.80">
        <route edges="E_n_3_0_n_2_0 E_n_2_0_n_1_0 E_n_1_0_n_0_0 E_n_0_0_n_0_1 E_n_0_1_n_0_2 E_n_0_2_n_0_3"/>
    </vehicle>
    <vehicle id="130" depart="156.00">
        <route edges="E_n_0_4_n_1_4 E_n_1_4_n_2_4 E_n_2_4_n_3_4 E_n_3_4_n_4_4 E_n_4_4_n_4_3 E_n_4_3_n_4_2"/>
    </vehicle>
    <vehicle id="131" depart="157.20">
        <route edges="E_n_0_3_n_0_4 E_n_0_4_n_1_4 E_n_1_4_n_1_3 E_n_1_3_n_1_2 E_n_1_2_n_2_2 E_n_2_2_n_3_2"/>
    </vehicle>
    <vehicle id="132" depart="158.40">
        <route edges="E_n_2_3_n_1_3 E_n_1_3_n_1_2 E_n_1_2_n_1_1 E_n_1_1_n_1_0 E_n_1_0_n_0_0"/>
    </vehicle>
    <vehicle id="133" depart="159.60">
        <route edges="E_n_3_3_n_2_3 E_n_2_3_n_1_3 E_n_1_3_n_1_2 E_n_1_2_n_1_1 E_n_1_1_n_1_0 E_n_1_0_n_2_0 E_n_2_0_n_3_0"/>
    </vehicle>
    <vehicle id="134" depart="160.80">
        <route edges="E_n_4_0_n_4_1 E_n_4_1_n_4_2 E_n_4_2_n_4_3 E_n_4_3_n_4_4 E_n_4_4_n_3_4 E_n_3_4_n_2_4 E_n_2_4_n_1_4 E_n_1_4_n_1_3 E_n_1_3_n_0_3 E_n_0_3_n_0_4"/>
    </vehicle>
    <vehicle id="135" depart="162.00">
        <route edges="E_n_4_2_n_4_3 E_n_4_3_n_3_3 E_n_3_3_n_3_2 E_n_3_2_n_3_1 E_n_3_1_n_3_0 E_n_3_0_n_2_0 E_n_2_0_n_1_0"/>
    </vehicle>
    <vehicle id="136" depart="163.20">
        <route edges="E_n_1_2_n_2_2 E_n_2_2_n_2_3 E_n_2_3_n_2_4 E_n_2_4_n_1_4 E_n_1_4_n_0_4"/>
    </vehicle>
    <vehicle id="137" depart="164.40">
        <route edges="E_n_0_1_n_0_2 E_n_0_2_n_1_2 E_n_1_2_n_1_1 E_n_1_1_n_1_0 E_n_1_0_n_0_0"/>
    </vehicle>
    <vehicle id="138" depart="165.60">
        <route edges="E_n_1_0_n_2_0 E_n_2_0_n_2_1 E_n_2_1_n_2_2 E_n_2_2_n_2_3 E_n_2_3_n_2_4 E_n_2_4_n_3_4 E_n_3_4_n_4_4 E_n_4_4_n_4_3 E_n_4_3_n_4_2"/>
    </vehicle>
    <vehicle id="139" depart="166.80">
        <route edges="E_n_2_2_n_2_3 E_n_2_3_n_1_3 E_n_1_3_n_1_4 E_n_1_4_n_2_4"/>
    </vehicle>
    <vehicle id="140" depart="168.00">
        <route edges="E_n_1_2_n_2_2 E_n_2_2_n_3_2 E_n_3_2_n_3_1 E_n_3_1_n_3_0"/>
    </vehicle>
    <vehicle id="141" depart="169.20">
        <route edges="E_n_2_3_n_1_3 E_n_1_3_n_1_2 E_n_1_2_n_1_1 E_n_1_1_n_1_0 E_n_1_0_n_2_0"/>
    </vehicle>
    <vehicle id="142" depart="170.40">
        <route edges="E_n_0_1_n_0_2 E_n_0_2_n_1_2 E_n_1_2_n_1_1 E_n_1_1_n_1_0"/>
    </vehicle>
    <vehicle id="143" depart="171.60">
        <route edges="E_n_0_4_n_1_4 E_n_1_4_n_1_3 E_n_1_3_n_0_3 E_n_0_3_n_0_4"/>
    </vehicle>
    <vehicle id="144" depart="172.80">
        <route edges="E_n_3_2_n_3_1 E_n_3_1_n_2_1 E_n_2_1_n_1_1"/>
    </vehicle>
    <vehicle id="145" depart="174.00">
        <route edges="E_n_0_2_n_0_3 E_n_0_3_n_0_4 E_n_0_4_n_1_4 E_n_1_4_n_2_4 E_n_2_4_n_3_4 E_n_3_4_n_3_3 E_n_3_3_n_2_3"/>
    </vehicle>
    <vehicle id="146" depart="175.20">
        <route edges="E_n_4_3_n_4_2 E_n_4_2_n_4_1 E_n_4_1_n_3_1 E_n_3_1_n_2_1 E_n_2_1_n_2_2 E_n_2_2_n_3_2 E_n_3_2_n_4_2"/>
    </vehicle>
    <vehicle id="147" depart="176.40">
        <route edges="E_n_3_2_n_3_1 E_n_3_1_n_3_0 E_n_3_0_n_4_0 E_n_4_0_n_4_1 E_n_4_1_n_4_2 E_n_4_2_n_4_3"/>
    </vehicle>
    <vehicle id="148" depart="177.60">
        <route edges="E_n_3_4_n_2_4 E_n_2_4_n_1_4 E_n_1_4_n_1_3 E_n_1_3_n_1_2 E_n_1_2_n_2_2 E_n_2_2_n_3_2 E_n_3_2_n_3_1 E_n_3_1_n_3_0 E_n_3_0_n_2_0 E_n_2_0_n_1_0 E_n_1_0_n_1_1"/>
    </vehicle>
    <vehicle id="149" depart="178.80">
        <route edges="E_n_1_0_n_1_1 E_n_1_1_n_1_2 E_n_1_2_n_2_2"/>
    </vehicle>
    <vehicle id="150" depart="180.00">
        <route edges="E_n_3_0_n_2_0 E_n_2_0_n_1_0 E_n_1_0_n_1_1 E_n_1_1_n_1_2 E_n_1_2_n_1_3 E_n_1_3_n_1_4"/>
    </vehicle>
    <vehicle id="151" depart="181.20">
        <route edges="E_n_4_4_n_3_4 E_n_3_4_n_3_3 E_n_3_3_n_3_2 E_n_3_2_n_4_2 E_n_4_2_n_4_3 E_n_4_3_n_4_4"/>
    </vehicle>
    <vehicle id="152" depart="182.40">
        <route edges="E_n_3_4_n_3_3 E_n_3_3_n_2_3 E_n_2_3_n_1_3 E_n_1_3_n_1_2 E_n_1_2_n_1_1 E_n_1_1_n_1_0 E_n_1_0_n_2_0"/>
    </vehicle>
    <vehicle id="153" depart="183.60">
        <route edges="E_n_2_2_n_3_2 E_n_3_2_n_3_1 E_n_3_1_n_3_0 E_n_3_0_n_2_0 E_n_2_0_n_2_1"/>
    </vehicle>
    <vehicle id="154" depart="184.80">
        <route edges="E_n_2_0_n_1_0 E_n_1_0_n_1_1 E_n_1_1_n_1_2 E_n_1_2_n_1_3 E_n_1_3_n_1_4 E_n_1_4_n_2_4 E_n_2_4_n_3_4 E_n_3_4_n_3_3"/>
    </vehicle>
    <vehicle id="155" depart="186.00">
        <route edges="E_n_2_1_n_1_1 E_n_1_1_n_1_2 E_n_1_2_n_1_3 E_n_1_3_n_1_4 E_n_1_4_n_2_4"/>
    </vehicle>
    <vehicle id="156" depart="187.20">
        <route edges="E_n_3_2_n_3_1 E_n_3_1_n_2_1 E_n_2_1_n_2_2 E_n_2_2_n_2_3 E_n_2_3_n_2_4 E_n_2_4_n_1_4 E_n_1_4_n_1_3"/>
    </vehicle>
    <vehicle id="157" depart="188.40">
        <route edges="E_n_2_2_n_3_2 E_n_3_2_n_4_2 E_n_4_2_n_4_1 E_n_4_1_n_3_1"/>
    </vehicle>
    <vehicle id="158" depart="189.60">
        <route edges="E_n_1_2_n_2_2 E_n_2_2_n_3_2 E_n_3_2_n_3_1 E_n_3_1_n_2_1 E_n_2_1_n_1_1 E_n_1_1_n_1_2"/>
    </vehicle>
    <vehicle id="159" depart="190.80">
        <route edges="E_n_0_0_n_1_0 E_n_1_0_n_1_1 E_n_1_1_n_1_2 E_n_1_2_n_1_3 E_n_1_3_n_1_4 E_n_1_4_n_2_4 E_n_2_4_n_3_4"/>
    </vehicle>
    <vehicle id="160" depart="192.00">
        <route edges="E_n_1_0_n_1_1 E_n_1_1_n_0_1 E_n_0_1_n_0_2"/>
    </vehicle>
    <vehicle id="161" depart="193.20">
        <route edges="E_n_4_1_n_3_1 E_n_3_1_n_2_1 E_n_2_1_n_2_2 E_n_2_2_n_2_3 E_n_2_3_n_1_3 E_n_1_3_n_1_2"/>
    </vehicle>
    <vehicle id="162" depart="194.40">
        <route edges="E_n_4_1_n_3_1 E_n_3_1_n_2_1 E_n_2_1_n_1_1 E_n_1_1_n_0_1 E_n_0_1_n_0_2 E_n_0_2_n_1_2"/>
    </vehicle>
    <vehicle id="163" depart="195.60">
        <route edges="E_n_1_0_n_0_0 E_n_0_0_n_0_1 E_n_0_1_n_0_2 E_n_0_2_n_1_2 E_n_1_2_n_2_2 E_n_2_2_n_3_2 E_n_3_2_n_4_2 E_n_4_2_n_4_3 E_n_4_3_n_4_4"/>
    </vehicle>
    <vehicle id="164" depart="196.80">
        <route edges="E_n_2_2_n_3_2 E_n_3_2_n_3_1 E_n_3_1_n_2_1 E_n_2_1_n_2_2 E_n_2_2_n_2_3"/>
    </vehicle>
    <vehicle id="165" depart="198.00">
        <route edges="E_n_0_1_n_0_2 E_n_0_2_n_1_2 E_n_1_2_n_1_3 E_n_1_3_n_1_4 E_n_1_4_n_2_4 E_n_2_4_n_3_4 E_n_3_4_n_4_4"/>
    </vehicle>
    <vehicle id="166" depart="199.20">
        <route edges="E_n_1_3_n_0_3 E_n_0_3_n_0_4 E_n_0_4_n_1_4 E_n_1_4_n_1_3 E_n_1_3_n_1_2 E_n_1_2_n_1_1 E_n_1_1_n_1_0 E_n_1_0_n_2_0 E_n_2_0_n_3_0 E_n_3_0_n_4_0 E_n_4_0_n_4_1"/>
    </vehicle>
    <vehicle id="167" depart="200.40">
        <route edges="E_n_4_2_n_4_1 E_n_4_1_n_3_1 E_n_3_1_n_2_1 E_n_2_1_n_2_2 E_n_2_2_n_2_3 E_n_2_3_n_1_3"/>
    </vehicle>
    <vehicle id="168" depart="201.60">
        <route edges="E_n_4_3_n_3_3 E_n_3_3_n_3_2 E_n_3_2_n_3_1 E_n_3_1_n_2_1 E_n_2_1_n_1_1 E_n_1_1_n_1_2"/>
    </vehicle>
    <vehicle id="169" depart="202.80">
        <route edges="E_n_2_3_n_2_4 E_n_2_4_n_1_4 E_n_1_4_n_1_3 E_n_1_3_n_1_2 E_n_1_2_n_1_1 E_n_1_1_n_1_0 E_n_1_0_n_2_0 E_n_2_0_n_3_0 E_n_3_0_n_4_0 E_n_4_0_n_4_1"/>
    </vehicle>
    <vehicle id="170" depart="204.00">