<?xml version="1.0" encoding="UTF-8"?>

<!-- generated on 2026-04-30 17:43:43.706128 by Eclipse SUMO randomTrips.py v1.26.0
<configuration>
    <net-file value="scenarios/random/random.net.xml"/>
    <output-trip-file value="scenarios/random/random.trips.xml"/>
    <route-file value="scenarios/random/random.rou.xml"/>
    <seed value="95229"/>
    <end value="250.0"/>
    <period value="1.2"/>
</configuration>
-->

<routes xmlns:xsi="http://www.w3.org/2001/XMLSchema-instance" xsi:noNamespaceSchemaLocation="http://sumo.dlr.de/xsd/routes_file.xsd">
    <trip id="0" depart="0.00" from="E_n_1_0_n_2_0" to="E_n_1_2_n_2_2"/>
    <trip id="1" depart="1.20" from="E_n_3_2_n_3_1" to="E_n_2_2_n_1_2"/>
    <trip id="2" depart="2.40" from="E_n_3_2_n_4_2" to="E_n_2_4_n_2_3"/>
    <trip id="3" depart="3.60" from="E_n_0_3_n_0_4" to="E_n_2_3_n_2_2"/>
    <trip id="4" depart="4.80" from="E_n_4_3_n_3_3" to="E_n_2_3_n_1_3"/>
    <trip id="5" depart="6.00" from="E_n_2_3_n_1_3" to="E_n_3_3_n_3_2"/>
    <trip id="6" depart="7.20" from="E_n_3_2_n_3_1" to="E_n_4_0_n_4_1"/>
    <trip id="7" depart="8.40" from="E_n_0_3_n_0_2" to="E_n_1_4_n_2_4"/>
    <trip id="8" depart="9.60" from="E_n_0_4_n_1_4" to="E_n_1_3_n_0_3"/>
    <trip id="9" depart="10.80" from="E_n_1_3_n_0_3" to="E_n_2_2_n_2_1"/>
    <trip id="10" depart="12.00" from="E_n_0_2_n_0_3" to="E_n_2_1_n_1_1"/>
    <trip id="11" depart="13.20" from="E_n_4_1_n_4_2" to="E_n_3_1_n_3_0"/>
    <trip id="12" depart="14.40" from="E_n_0_0_n_0_1" to="E_n_2_2_n_2_3"/>
    <trip id="13" depart="15.60" from="E_n_2_4_n_3_4" to="E_n_4_2_n_4_3"/>
    <trip id="14" depart="16.80" from="E_n_2_2_n_2_1" to="E_n_1_2_n_2_2"/>
    <trip id="15" depart="18.00" from="E_n_2_4_n_3_4" to="E_n_2_4_n_3_4"/>
    <trip id="16" depart="19.20" from="E_n_4_3_n_3_3" to="E_n_2_0_n_2_1"/>
    <trip id="17" depart="20.40" from="E_n_2_0_n_2_1" to="E_n_4_3_n_4_4"/>
    <trip id="18" depart="21.60" from="E_n_4_3_n_3_3" to="E_n_3_2_n_3_1"/>
    <trip id="19" depart="22.80" from="E_n_1_0_n_2_0" to="E_n_2_4_n_2_3"/>
    <trip id="20" depart="24.00" from="E_n_2_1_n_2_0" to="E_n_3_0_n_4_0"/>
    <trip id="21" depart="25.20" from="E_n_1_1_n_2_1" to="E_n_2_2_n_3_2"/>
    <trip id="22" depart="26.40" from="E_n_0_4_n_1_4" to="E_n_3_2_n_2_2"/>
    <trip id="23" depart="27.60" from="E_n_1_4_n_1_3" to="E_n_4_2_n_4_3"/>
    <trip id="24" depart="28.80" from="E_n_0_2_n_0_3" to="E_n_2_4_n_3_4"/>
    <trip id="25" depart="30.00" from="E_n_3_3_n_2_3" to="E_n_3_1_n_4_1"/>
    <trip id="26" depart="31.20" from="E_n_3_0_n_4_0" to="E_n_2_1_n_3_1"/>
    <trip id="27" depart="32.40" from="E_n_2_2_n_3_2" to="E_n_2_4_n_3_4"/>
    <trip id="28" depart="33.60" from="E_n_2_2_n_2_3" to="E_n_0_0_n_1_0"/>
    <trip id="29" depart="34.80" from="E_n_0_1_n_1_1" to="E_n_2_1_n_2_0"/>
    <trip id="30" depart="36.00" from="E_n_0_1_n_1_1" to="E_n_0_2_n_1_2"/>
    <trip id="31" depart="37.20" from="E_n_1_2_n_2_2" to="E_n_2_3_n_2_2"/>
    <trip id="32" depart="38.40" from="E_n_0_1_n_0_0" to="E_n_2_1_n_1_1"/>
    <trip id="33" depart="39.60" from="E_n_0_2_n_0_3" to="E_n_2_4_n_3_4"/>
    <trip id="34" depart="40.80" from="E_n_3_1_n_4_1" to="E_n_1_3_n_0_3"/>
    <trip id="35" depart="42.00" from="E_n_0_1_n_0_0" to="E_n_4_3_n_3_3"/>
    <trip id="36" depart="43.20" from="E_n_0_2_n_1_2" to="E_n_4_2_n_3_2"/>
    <trip id="37" depart="44.40" from="E_n_0_2_n_1_2" to="E_n_1_1_n_1_0"/>
    <trip id="38" depart="45.60" from="E_n_3_0_n_4_0" to="E_n_4_3_n_4_4"/>
    <trip id="39" depart="46.80" from="E_n_3_2_n_2_2" to="E_n_0_1_n_1_1"/>
    <trip id="40" depart="48.00" from="E_n_4_2_n_4_3" to="E_n_1_2_n_2_2"/>
    <trip id="41" depart="49.20" from="E_n_2_2_n_1_2" to="E_n_1_2_n_1_1"/>
    <trip id="42" depart="50.40" from="E_n_0_2_n_0_3" to="E_n_1_1_n_0_1"/>
    <trip id="43" depart="51.60" from="E_n_2_2_n_3_2" to="E_n_1_4_n_2_4"/>
    <trip id="44" depart="52.80" from="E_n_3_1_n_4_1" to="E_n_2_1_n_2_0"/>
    <trip id="45" depart="54.00" from="E_n_1_1_n_1_0" to="E_n_4_1_n_3_1"/>
    <trip id="46" depart="55.20" from="E_n_4_2_n_3_2" to="E_n_0_2_n_1_2"/>
    <trip id="47" depart="56.40" from="E_n_3_3_n_3_2" to="E_n_1_0_n_2_0"/>
    <trip id="48" depart="57.60" from="E_n_0_3_n_0_4" to="E_n_2_3_n_2_4"/>
    <trip id="49" depart="58.80" from="E_n_3_2_n_3_1" to="E_n_2_3_n_2_4"/>
    <trip id="50" depart="60.00" from="E_n_0_4_n_0_3" to="E_n_3_3_n_3_2"/>
    <trip id="51" depart="61.20" from="E_n_1_3_n_1_2" to="E_n_2_0_n_2_1"/>
    <trip id="52" depart="62.40" from="E_n_0_1_n_0_0" to="E_n_3_2_n_2_2"/>
    <trip id="53" depart="63.60" from="E_n_1_2_n_0_2" to="E_n_0_4_n_1_4"/>
    <trip id="54" depart="64.80" from="E_n_4_2_n_4_3" to="E_n_0_3_n_0_2"/>
    <trip id="55" depart="66.00" from="E_n_2_1_n_1_1" to="E_n_1_1_n_2_1"/>
    <trip id="56" depart="67.20" from="E_n_3_1_n_2_1" to="E_n_3_1_n_2_1"/>
    <trip id="57" depart="68.40" from="E_n_3_1_n_3_0" to="E_n_2_3_n_2_2"/>
    <trip id="58" depart="69.60" from="E_n_2_2_n_1_2" to="E_n_4_3_n_4_4"/>
    <trip id="59" depart="70.80" from="E_n_0_3_n_0_4" to="E_n_2_3_n_2_4"/>
    <trip id="60" depart="72.00" from="E_n_1_4_n_2_4" to="E_n_2_1_n_2_0"/>
    <trip id="61" depart="73.20" from="E_n_3_2_n_4_2" to="E_n_2_2_n_1_2"/>
    <trip id="62" depart="74.40" from="E_n_2_4_n_2_3" to="E_n_4_0_n_4_1"/>
    <trip id="63" depart="75.60" from="E_n_3_1_n_4_1" to="E_n_2_4_n_3_4"/>
    <trip id="64" depart="76.80" from="E_n_1_1_n_0_1" to="E_n_1_1_n_2_1"/>
    <trip id="65" depart="78.00" from="E_n_2_2_n_1_2" to="E_n_2_0_n_2_1"/>
    <trip id="66" depart="79.20" from="E_n_4_2_n_3_2" to="E_n_4_1_n_3_1"/>
    <trip id="67" depart="80.40" from="E_n_1_3_n_0_3" to="E_n_4_1_n_3_1"/>
    <trip id="68" depart="81.60" from="E_n_2_2_n_2_3" to="E_n_1_0_n_2_0"/>
    <trip id="69" depart="82.80" from="E_n_4_2_n_4_3" to="E_n_2_3_n_2_4"/>
    <trip id="70" depart="84.00" from="E_n_4_2_n_4_3" to="E_n_2_1_n_3_1"/>
    <trip id="71" depart="85.20" from="E_n_0_2_n_1_2" to="E_n_3_2_n_4_2"/>
    <trip id="72" depart="86.40" from="E_n_2_1_n_3_1" to="E_n_4_1_n_3_1"/>
    <trip id="73" depart="87.60" from="E_n_0_0_n_0_1" to="E_n_3_3_n_2_3"/>
    <trip id="74" depart="88.80" from="E_n_0_3_n_0_4" to="E_n_0_2_n_1_2"/>
    <trip id="75" depart="90.00" from="E_n_1_2_n_2_2" to="E_n_0_2_n_1_2"/>
    <trip id="76" depart="91.20" from="E_n_3_4_n_3_3" to="E_n_3_2_n_2_2"/>
    <trip id="77" depart="92.40" from="E_n_1_4_n_2_4" to="E_n_4_2_n_4_3"/>
    <trip id="78" depart="93.60" from="E_n_3_2_n_3_1" to="E_n_3_2_n_4_2"/>
    <trip id="79" depart="94.80" from="E_n_3_2_n_4_2" to="E_n_2_0_n_3_0"/>
    <trip id="80" depart="96.00" from="E_n_2_2_n_1_2" to="E_n_3_1_n_4_1"/>
    <trip id="81" depart="97.20" from="E_n_2_0_n_2_1" to="E_n_3_1_n_3_0"/>
    <trip id="82" depart="98.40" from="E_n_4_3_n_3_3" to="E_n_0_2_n_0_1"/>
    <trip id="83" depart="99.60" from="E_n_2_4_n_2_3" to="E_n_3_4_n_3_3"/>
    <trip id="84" depart="100.80" from="E_n_3_2_n_4_2" to="E_n_1_2_n_0_2"/>
    <trip id="85" depart="102.00" from="E_n_1_1_n_2_1" to="E_n_1_2_n_1_1"/>
    <trip id="86" depart="103.20" from="E_n_0_3_n_0_4" to="E_n_3_4_n_3_3"/>
    <trip id="87" depart="104.40" from="E_n_3_3_n_2_3" to="E_n_1_0_n_2_0"/>
    <trip id="88" depart="105.60" from="E_n_1_1_n_1_0" to="E_n_4_0_n_4_1"/>
    <trip id="89" depart="106.80" from="E_n_3_2_n_4_2" to="E_n_0_4_n_1_4"/>
    <trip id="90" depart="108.00" from="E_n_0_1_n_1_1" to="E_n_3_4_n_4_4"/>
    <trip id="91" depart="109.20" from="E_n_0_1_n_0_0" to="E_n_3_0_n_4_0"/>
    <trip id="92" depart="110.40" from="E_n_2_2_n_3_2" to="E_n_2_2_n_2_1"/>
    <trip id="93" depart="111.60" from="E_n_1_3_n_1_2" to="E_n_2_3_n_2_4"/>
    <trip id="94" depart="112.80" from="E_n_3_3_n_2_3" to="E_n_0_0_n_1_0"/>
    <trip id="95" depart="114.00" from="E_n_2_1_n_2_2" to="E_n_3_0_n_4_0"/>
    <trip id="96" depart="115.20" from="E_n_2_1_n_2_0" to="E_n_1_2_n_0_2"/>
    <trip id="97" depart="116.40" from="E_n_2_2_n_2_3" to="E_n_0_1_n_0_2"/>
    <trip id="98" depart="117.60" from="E_n_3_1_n_2_1" to="E_n_4_3_n_4_4"/>
    <trip id="99" depart="118.80" from="E_n_4_0_n_4_1" to="E_n_0_3_n_0_4"/>
    <trip id="100" depart="120.00" from="E_n_3_4_n_3_3" to="E_n_4_1_n_3_1"/>
    <trip id="101" depart="121.20" from="E_n_2_2_n_2_1" to="E_n_1_4_n_1_3"/>
    <trip id="102" depart="122.40" from="E_n_1_4_n_2_4" to="E_n_3_1_n_2_1"/>
    <trip id="103" depart="123.60" from="E_n_0_4_n_0_3" to="E_n_2_4_n_3_4"/>
    <trip id="104" depart="124.80" from="E_n_4_1_n_3_1" to="E_n_1_2_n_1_1"/>
    <trip id="105" depart="126.00" from="E_n_3_4_n_3_3" to="E_n_3_3_n_3_2"/>
    <trip id="106" depart="127.20" from="E_n_2_2_n_2_3" to="E_n_1_3_n_1_2"/>
    <trip id="107" depart="128.40" from="E_n_3_1_n_3_0" to="E_n_3_4_n_4_4"/>
    <trip id="108" depart="129.60" from="E_n_1_1_n_2_1" to="E_n_3_3_n_3_2"/>
    <trip id="109" depart="130.80" from="E_n_1_3_n_1_2" to="E_n_4_1_n_4_2"/>
    <trip id="110" depart="132.00" from="E_n_3_0_n_4_0" to="E_n_2_3_n_2_4"/>
    <trip id="111" depart="133.20" from="E_n_0_1_n_1_1" to="E_n_0_2_n_0_3"/>
    <trip id="112" depart="134.40" from="E_n_4_0_n_4_1" to="E_n_2_2_n_1_2"/>
    <trip id="113" depart="135.60" from="E_n_0_2_n_0_1" to="E_n_2_2_n_2_1"/>
    <trip id="114" depart="136.80" from="E_n_4_2_n_4_3" to="E_n_3_1_n_3_0"/>
    <trip id="115" depart="138.00" from="E_n_1_2_n_0_2" to="E_n_2_1_n_2_0"/>
    <trip id="116" depart="139.20" from="E_n_0_1_n_0_0" to="E_n_0_3_n_0_4"/>
    <trip id="117" depart="140.40" from="E_n_0_3_n_0_2" to="E_n_1_1_n_1_0"/>
    <trip id="118" depart="141.60" from="E_n_1_1_n_0_1" to="E_n_0_3_n_0_4"/>
    <trip id="119" depart="142.80" from="E_n_4_1_n_3_1" to="E_n_2_1_n_3_1"/>
    <trip id="120" depart="144.00" from="E_n_0_2_n_0_1" to="E_n_3_4_n_4_4"/>
    <trip id="121" depart="145.20" from="E_n_2_2_n_2_3" to="E_n_1_1_n_0_1"/>
    <trip id="122" depart="146.40" from="E_n_4_1_n_4_2" to="E_n_3_1_n_4_1"/>
    <trip id="123" depart="147.60" from="E_n_3_3_n_2_3" to="E_n_2_1_n_2_0"/>
    <trip id="124" depart="148.80" from="E_n_1_3_n_1_2" to="E_n_2_3_n_2_4"/>
    <trip id="125" depart="150.00" from="E_n_3_0_n_4_0" to="E_n_2_0_n_2_1"/>
    <trip id="126" depart="151.20" from="E_n_3_3_n_2_3" to="E_n_0_3_n_0_4"/>
    <trip id="127" depart="152.40" from="E_n_0_4_n_0_3" to="E_n_3_1_n_2_1"/>
    <trip id="128" depart="153.60" from="E_n_1_1_n_2_1" to="E_n_2_3_n_2_4"/>
    <trip id="129" depart="154.80" from="E_n_3_3_n_2_3" to="E_n_4_3_n_4_4"/>
    <trip id="130" depart="156.00" from="E_n_0_2_n_0_3" to="E_n_2_4_n_3_4"/>
    <trip id="131" depart="157.20" from="E_n_2_3_n_2_4" to="E_n_3_2_n_3_1"/>
    <trip id="132" depart="158.40" from="E_n_1_1_n_0_1" to="E_n_1_0_n_2_0"/>
    <trip id="133" depart="159.60" from="E_n_3_2_n_3_1" to="E_n_0_4_n_1_4"/>
    <trip id="134" depart="160.80" from="E_n_3_2_n_3_1" to="E_n_1_0_n_2_0"/>
    <trip id="135" depart="162.00" from="E_n_2_4_n_2_3" to="E_n_0_3_n_0_2"/>
    <trip id="136" depart="163.20" from="E_n_4_1_n_4_2" to="E_n_2_0_n_2_1"/>
    <trip id="137" depart="164.40" from="E_n_1_1_n_0_1" to="E_n_0_3_n_0_4"/>
    <trip id="138" depart="165.60" from="E_n_2_2_n_2_1" to="E_n_0_1_n_0_0"/>
    <trip id="139" depart="166.80" from="E_n_1_2_n_0_2" to="E_n_1_0_n_2_0"/>
    <trip id="140" depart="168.00" from="E_n_2_0_n_3_0" to="E_n_3_1_n_2_1"/>
    <trip id="141" depart="169.20" from="E_n_4_2_n_3_2" to="E_n_2_0_n_2_1"/>
    <trip id="142" depart="170.40" from="E_n_1_2_n_1_1" to="E_n_2_4_n_3_4"/>
    <trip id="143" depart="171.60" from="E_n_1_4_n_2_4" to="E_n_1_1_n_2_1"/>
    <trip id="144" depart="172.80" from="E_n_0_2_n_0_1" to="E_n_3_0_n_4_0"/>
    <trip id="145" depart="174.00" from="E_n_1_2_n_1_1" to="E_n_3_1_n_2_1"/>
    <trip id="146" depart="175.20" from="E_n_3_3_n_2_3" to="E_n_2_0_n_2_1"/>
    <trip id="147" depart="176.40" from="E_n_0_4_n_1_4" to="E_n_3_1_n_2_1"/>
    <trip id="148" depart="177.60" from="E_n_2_3_n_1_3" to="E_n_1_2_n_1_1"/>
    <trip id="149" depart="178.80" from="E_n_2_4_n_3_4" to="E_n_1_3_n_0_3"/>
    <trip id="150" depart="180.00" from="E_n_3_2_n_2_2" to="E_n_1_3_n_1_2"/>
    <trip id="151" depart="181.20" from="E_n_3_2_n_2_2" to="E_n_1_4_n_1_3"/>
    <trip id="152" depart="182.40" from="E_n_0_1_n_1_1" to="E_n_4_0_n_4_1"/>
    <trip id="153" depart="183.60" from="E_n_1_0_n_2_0" to="E_n_3_4_n_3_3"/>
    <trip id="154" depart="184.80" from="E_n_0_2_n_1_2" to="E_n_1_1_n_1_0"/>
    <trip id="155" depart="186.00" from="E_n_2_0_n_2_1" to="E_n_2_0_n_2_1"/>
    <trip id="156" depart="187.20" from="E_n_1_1_n_0_1" to="E_n_0_2_n_0_3"/>
    <trip id="157" depart="188.40" from="E_n_3_2_n_4_2" to="E_n_2_1_n_2_2"/>
    <trip id="158" depart="189.60" from="E_n_4_0_n_4_1" to="E_n_0_3_n_0_4"/>
    <trip id="159" depart="190.80" from="E_n_0_2_n_0_3" to="E_n_0_0_n_1_0"/>
    <trip id="160" depart="192.00" from="E_n_1_1_n_2_1" to="E_n_0_1_n_0_0"/>
    <trip id="161" depart="193.20" from="E_n_0_3_n_0_2" to="E_n_2_3_n_1_3"/>
    <trip id="162" depart="194.40" from="E_n_0_4_n_1_4" to="E_n_4_3_n_3_3"/>
    <trip id="163" depart="195.60" from="E_n_0_2_n_0_3" to="E_n_4_0_n_4_1"/>
    <trip id="164" depart="196.80" from="E_n_0_3_n_0_2" to="E_n_0_1_n_0_0"/>
    <trip id="165" depart="198.00" from="E_n_2_1_n_2_2" to="E_n_0_3_n_0_4"/>
    <trip id="166" depart="199.20" from="E_n_1_4_n_2_4" to="E_n_0_3_n_0_2"/>
    <trip id="167" depart="200.40" from="E_n_2_1_n_2_0" to="E_n_2_1_n_2_2"/>
    <trip id="168" depart="201.60" from="E_n_0_0_n_1_0" to="E_n_2_0_n_2_1"/>
    <trip id="169" depart="202.80" from="E_n_2_3_n_2_4" to="E_n_0_1_n_0_0"/>
    <trip id="170" depart="204.00" from="E_n_0_0_n_1_0" to="E_n_3_0_n_4_0"/>
    <trip id="171" depart="205.20" from="E_n_2_2_n_3_2" to="E_n_2_2_n_3_2"/>
    <trip id="172" depart="206.40" from="E_n_2_3_n_1_3" to="E_n_1_1_n_0_1"/>
    <trip id="173" depart="207.60" from="E_n_3_2_n_4_2" to="E_n_1_1_n_2_1"/>
    <trip id="174" depart="208.80" from="E_n_3_2_n_2_2" to="E_n_2_3_n_1_3"/>
    <trip id="175" depart="210.00" from="E_n_1_3_n_1_2" to="E_n_4_0_n_4_1"/>
    <trip id="176" depart="211.20" from="E_n_2_0_n_2_1" to="E_n_0_1_n_0_2"/>
    <trip id="177" depart="212.40" from="E_n_3_2_n_3_1" to="E_n_4_2_n_4_3"/>
    <trip id="178" depart="213.60" from="E_n_0_0_n_0_1" to="E_n_0_0_n_1_0"/>
    <trip id="179" depart="214.80" from="E_n_0_1_n_0_0" to="E_n_2_3_n_1_3"/>
    <trip id="180" depart="216.00" from="E_n_2_3_n_2_4" to="E_n_0_2_n_0_1"/>
    <trip id="181" depart="217.20" from="E_n_0_2_n_1_2" to="E_n_0_2_n_0_1"/>
    <trip id="182" depart="218.40" from="E_n_3_4_n_3_3" to="E_n_3_3_n_2_3"/>
    <trip id="183" depart="219.60" from="E_n_2_1_n_2_0" to="E_n_3_2_n_2_2"/>
    <trip id="184" depart="220.80" from="E_n_4_3_n_3_3" to="E_n_0_3_n_0_4"/>
    <trip id="185" depart="222.00" from="E_n_3_3_n_3_2" to="E_n_1_0_n_2_0"/>
    <trip id="186" depart="223.20" from="E_n_0_1_n_0_2" to="E_n_4_0_n_4_1"/>
    <trip id="187" depart="224.40" from="E_n_1_4_n_1_3" to="E_n_1_4_n_1_3"/>
    <trip id="188" depart="225.60" from="E_n_0_1_n_1_1" to="E_n_2_3_n_1_3"/>
    <trip id="189" depart="226.80" from="E_n_4_0_n_4_1" to="E_n_0_2_n_0_1"/>
    <trip id="190" depart="228.00" from="E_n_0_3_n_0_2" to="E_n_3_2_n_2_2"/>
    <trip id="191" depart="229.20" from="E_n_1_2_n_0_2" to="E_n_1_2_n_1_1"/>
    <trip id="192" depart="230.40" from="E_n_4_1_n_3_1" to="E_n_4_2_n_4_3"/>
    <trip id="193" depart="231.60" from="E_n_4_2_n_4_3" to="E_n_4_2_n_3_2"/>
    <trip id="194" depart="232.80" from="E_n_2_1_n_2_2" to="E_n_1_1_n_1_0"/>
    <trip id="195" depart="234.00" from="E_n_3_2_n_2_2" to="E_n_2_2_n_3_2"/>
    <trip id="196" depart="235.20" from="E_n_0_3_n_0_2" to="E_n_4_1_n_3_1"/>
    <trip id="197" depart="236.40" from="E_n_1_2_n_2_2" to="E_n_2_1_n_2_0"/>
    <trip id="198" depart="237.60" from="E_n_0_4_n_0_3" to="E_n_1_4_n_2_4"/>
    <trip id="199" depart="238.80" from="E_n_3_1_n_2_1" to="E_n_4_3_n_4_4"/>
    <trip id="200" depart="240.00" from="E_n_3_0_n_4_0" to="E_n_4_1_n_4_2"/>
    <trip id="201" depart="241.20" from="E_n_3_2_n_4_2" to="E_n_2_1_n_2_2"/>
    <trip id="202" depart="242.40" from="E_n_1_2_n_2_2" to="E_n_0_0_n_1_0"/>
    <trip id="203" depart="243.60" from="E_n_2_0_n_3_0" to="E_n_2_0_n_2_1"/>
    <trip id="204" depart="244.80" from="E_n_2_2_n_1_2" to="E_n_2_1_n_2_0"/>
    <trip id="205" depart="246.00" from="E_n_2_3_n_1_3" to="E_n_3_4_n_3_3"/>
    <trip id="206" depart="247.20" from="E_n_0_3_n_0_4" to="E_n_2_3_n_1_3"/>
    <trip id="207" depart="248.40" from="E_n_2_2_n_1_2" to="E_n_4_1_n_3_1"/>
    <trip id="208" depart="249.60" from="E_n_0_2_n_1_2" to="E_n_2_1_n_3_1"/>
</routes>
