<?xml version="1.0" encoding="UTF-8"?>

<!-- generated on 2026-04-30T18:00:46.082383+01:00 by Eclipse SUMO netconvert 1.26.0
<netconvertConfiguration xmlns:xsi="http://www.w3.org/2001/XMLSchema-instance" xsi:noNamespaceSchemaLocation="http://sumo.dlr.de/xsd/netconvertConfiguration.xsd">

    <input>
        <node-files value="basic_cross.nod.xml"/>
        <edge-files value="basic_cross.edg.xml"/>
    </input>

    <output>
        <output-file value="basic_cross.net.xml"/>
    </output>

</netconvertConfiguration>
-->

<net version="1.20" junctionCornerDetail="5" limitTurnSpeed="5.50" xmlns:xsi="http://www.w3.org/2001/XMLSchema-instance" xsi:noNamespaceSchemaLocation="http://sumo.dlr.de/xsd/net_file.xsd">

    <location netOffset="100.00,100.00" convBoundary="0.00,0.00,200.00,200.00" origBoundary="-100.00,-100.00,100.00,100.00" projParameter="!"/>

    <edge id=":center_0" function="internal">
        <lane id=":center_0_0" index="0" speed="13.89" length="11.20" shape="98.40,104.00 98.40,92.80"/>
    </edge>
    <edge id=":center_1" function="internal">
        <lane id=":center_1_0" index="0" speed="6.51" length="9.03" shape="98.40,104.00 98.75,101.55 99.80,99.80 101.55,98.75 104.00,98.40"/>
    </edge>
    <edge id=":center_2" function="internal">
        <lane id=":center_2_0" index="0" speed="6.51" length="9.03" shape="92.80,98.40 95.25,98.05 97.00,97.00 98.05,95.25 98.40,92.80"/>
    </edge>
    <edge id=":center_3" function="internal">
        <lane id=":center_3_0" index="0" speed="13.89" length="11.20" shape="92.80,98.40 104.00,98.40"/>
    </edge>

    <edge id="c2e" from="center" to="e" priority="-1">
        <lane id="c2e_0" index="0" speed="13.89" length="96.00" shape="104.00,98.40 200.00,98.40"/>
    </edge>
    <edge id="c2s" from="center" to="s" priority="-1">
        <lane id="c2s_0" index="0" speed="13.89" length="92.80" shape="98.40,92.80 98.40,-0.00"/>
    </edge>
    <edge id="n2c" from="n" to="center" priority="-1">
        <lane id="n2c_0" index="0" speed="13.89" length="96.00" shape="98.40,200.00 98.40,104.00"/>
    </edge>
    <edge id="w2c" from="w" to="center" priority="-1">
        <lane id="w2c_0" index="0" speed="13.89" length="92.80" shape="-0.00,98.40 92.80,98.40"/>
    </edge>

    <tlLogic id="center" type="static" programID="0" offset="0">
        <phase duration="42" state="GGrr"/>
        <phase duration="3"  state="yyrr"/>
        <phase duration="42" state="rrGG"/>
        <phase duration="3"  state="rryy"/>
    </tlLogic>

    <junction id="center" type="traffic_light" x="100.00" y="100.00" incLanes="n2c_0 w2c_0" intLanes=":center_0_0 :center_1_0 :center_2_0 :center_3_0" shape="96.80,104.00 100.00,104.00 100.44,101.78 101.00,101.00 101.78,100.44 102.78,100.11 104.00,100.00 104.00,96.80 101.78,96.36 101.00,95.80 100.44,95.02 100.11,94.02 100.00,92.80 96.80,92.80 96.36,95.02 95.80,95.80 95.02,96.36 94.02,96.69 92.80,96.80 92.80,100.00 95.02,100.44 95.80,101.00 96.36,101.78 96.69,102.78">
        <request index="0" response="1100" foes="1100" cont="0"/>
        <request index="1" response="1000" foes="1000" cont="0"/>
        <request index="2" response="0000" foes="0001" cont="0"/>
        <request index="3" response="0000" foes="0011" cont="0"/>
    </junction>
    <junction id="e" type="dead_end" x="200.00" y="100.00" incLanes="c2e_0" intLanes="" shape="200.00,96.80 200.00,100.00"/>
    <junction id="n" type="dead_end" x="100.00" y="200.00" incLanes="" intLanes="" shape="100.00,200.00 96.80,200.00"/>
    <junction id="s" type="dead_end" x="100.00" y="0.00" incLanes="c2s_0" intLanes="" shape="96.80,-0.00 100.00,-0.00"/>
    <junction id="w" type="dead_end" x="0.00" y="100.00" incLanes="" intLanes="" shape="-0.00,100.00 -0.00,96.80"/>

    <connection from="n2c" to="c2s" fromLane="0" toLane="0" via=":center_0_0" tl="center" linkIndex="0" dir="s" state="o"/>
    <connection from="n2c" to="c2e" fromLane="0" toLane="0" via=":center_1_0" tl="center" linkIndex="1" dir="l" state="o"/>
    <connection from="w2c" to="c2s" fromLane="0" toLane="0" via=":center_2_0" tl="center" linkIndex="2" dir="r" state="O"/>
    <connection from="w2c" to="c2e" fromLane="0" toLane="0" via=":center_3_0" tl="center" linkIndex="3" dir="s" state="O"/>

    <connection from=":center_0" to="c2s" fromLane="0" toLane="0" dir="s" state="M"/>
    <connection from=":center_1" to="c2e" fromLane="0" toLane="0" dir="l" state="M"/>
    <connection from=":center_2" to="c2s" fromLane="0" toLane="0" dir="r" state="M"/>
    <connection from=":center_3" to="c2e" fromLane="0" toLane="0" dir="s" state="M"/>

</net>
