<?xml version="1.0" encoding="UTF-8"?>
<edges xmlns:xsi="http://www.w3.org/2001/XMLSchema-instance" xsi:noNamespaceSchemaLocation="http://sumo.dlr.de/xsd/edges_file.xsd">
    <edge id="n2c" from="n" to="center" numLanes="1" speed="13.89"/>
    <edge id="c2s" from="center" to="s" numLanes="1" speed="13.89"/>
    <edge id="w2c" from="w" to="center" numLanes="1" speed="13.89"/>
    <edge id="c2e" from="center" to="e" numLanes="1" speed="13.89"/>
</edges>
