<?xml version="1.0" encoding="UTF-8"?>
<routes>
    <vType id="car" accel="2.6" decel="4.5" sigma="0.5" length="5" minGap="2.5" maxSpeed="13.89" color="blue"/>
    
    <route id="n_s" edges="n2c c2s"/>
    <route id="w_e" edges="w2c c2e"/>

    <flow id="flow_n" type="car" begin="0" end="1000" period="5" route="n_s"/>
    <flow id="flow_w" type="car" begin="2" end="1000" period="7" route="w_e"/>
</routes>
