<nodes><node id="160792601" x="-0.3546403" y="39.4758616" /><node id="2507470923" x="-0.348196" y="39.4733163" /><node id="10202599511" x="-0.3555734" y="39.4758913" /><node id="7020445806" x="-0.3480899" y="39.4730935" /><node id="260594767" x="-0.3581593" y="39.4715851" /><node id="10962905205" x="-0.3392566" y="39.4671598" /><node id="10962905206" x="-0.33928" y="39.4670756" /><node id="1870444665" x="-0.351931" y="39.4656875" /><node id="260594770" x="-0.3577283" y="39.471471" /><node id="1870444672" x="-0.3519644" y="39.4653986" /><node id="6004863106" x="-0.3502177" y="39.4678997" /><node id="6004863107" x="-0.3504091" y="39.4679273" /><node id="260594773" x="-0.3581823" y="39.4715471" /><node id="11524524177" x="-0.3449178" y="39.4749261" /><node id="11524524192" x="-0.3445706" y="39.4748253" /><node id="1957574822" x="-0.3438943" y="39.4747404" /><node id="11524524202" x="-0.3438365" y="39.4746115" /><node id="11473103030" x="-0.3478382" y="39.4735306" /><node id="11473103031" x="-0.3481257" y="39.4736201" /><node id="2061050047" x="-0.3513946" y="39.4655284" /><node id="249528514" x="-0.3549736" y="39.4703209" /><node id="2061050050" x="-0.3385598" y="39.4687836" /><node id="10233338053" x="-0.3439467" y="39.4687076" /><node id="10233338056" x="-0.3439997" y="39.4688166" /><node id="249528521" x="-0.357773" y="39.4713795" /><node id="5299079369" x="-0.3481157" y="39.4733116" /><node id="69572812" x="-0.3481391" y="39.4738009" /><node id="10233338068" x="-0.3436914" y="39.4687481" /><node id="5299079386" x="-0.3512488" y="39.4654843" /><node id="249528546" x="-0.3560533" y="39.4719199" /><node id="1996376297" x="-0.3497214" y="39.4729067" /><node id="249528556" x="-0.3554602" y="39.469326" /><node id="249528560" x="-0.3556681" y="39.4689007" /><node id="12534669558" x="-0.3350387" y="39.4699351" /><node id="12534669559" x="-0.3355335" y="39.4705787" /><node id="12534669560" x="-0.3351809" y="39.4698391" /><node id="251871532" x="-0.3492734" y="39.4706917" /><node id="10300860718" x="-0.3545641" y="39.4712643" /><node id="10300860719" x="-0.354371" y="39.4716642" /><node id="251871536" x="-0.3502316" y="39.4703348" /><node id="251871535" x="-0.3488548" y="39.4731796" /><node id="251871538" x="-0.3517942" y="39.4722468" /><node id="11524524339" x="-0.3424997" y="39.4742142" /><node id="11524524340" x="-0.3424592" y="39.4742946" /><node id="10300860729" x="-0.3520565" y="39.475376" /><node id="10300860730" x="-0.3521804" y="39.4751134" /><node id="10300860733" x="-0.3525836" y="39.4749306" /><node id="251871550" x="-0.3501326" y="39.4727748" /><node id="10300860734" x="-0.3526959" y="39.4749648" /><node id="69583169" x="-0.3524084" y="39.4755948" /><node id="251871560" x="-0.3491658" y="39.4730799" /><node id="13331226972" x="-0.3352053" y="39.4698722" /><node id="7873059201" x="-0.3374319" y="39.4665269" /><node id="7873059202" x="-0.3373905" y="39.466612" /><node id="7873059204" x="-0.3371742" y="39.4665541" /><node id="7873059205" x="-0.337219" y="39.4664621" /><node id="11466508681" x="-0.350479" y="39.4726642" /><node id="11525204366" x="-0.3414289" y="39.4733084" /><node id="11525204367" x="-0.3417744" y="39.4734048" /><node id="69577104" x="-0.3522727" y="39.4755568" /><node id="11512138129" x="-0.3571555" y="39.4723235" /><node id="11512138130" x="-0.3571885" y="39.472254" /><node id="430012830" x="-0.3564871" y="39.4672392" /><node id="430012836" x="-0.3511518" y="39.4655968" /><node id="430012837" x="-0.3513463" y="39.4656487" /><node id="11975205288" x="-0.3354163" y="39.4700204" /><node id="13331227066" x="-0.3347757" y="39.468825" /><node id="13331227079" x="-0.3350467" y="39.4699759" /><node id="250290644" x="-0.3567667" y="39.4664468" /><node id="7834505695" x="-0.3527075" y="39.4749361" /><node id="69575148" x="-0.3523314" y="39.475132" /><node id="69577206" x="-0.3527145" y="39.4752374" type="traffic_light" /><node id="1578447355" x="-0.3406809" y="39.4675751" /><node id="11196066314" x="-0.3455995" y="39.4688626" /><node id="11196066315" x="-0.3455534" y="39.4689735" /><node id="11196066316" x="-0.3458209" y="39.4689265" /><node id="11196066317" x="-0.3457682" y="39.4690345" /><node id="1828110861" x="-0.3473826" y="39.4735403" /><node id="11196066319" x="-0.3469119" y="39.4692319" /><node id="11196066320" x="-0.3468632" y="39.4693406" /><node id="1828110859" x="-0.3427449" y="39.4721543" /><node id="11196066323" x="-0.3482804" y="39.469623" /><node id="11196066325" x="-0.3492223" y="39.4698992" /><node id="11196066326" x="-0.3491743" y="39.4700103" /><node id="11196066327" x="-0.3494378" y="39.4697974" /><node id="69575191" x="-0.3508953" y="39.4749496" /><node id="106334767" x="-0.3362213" y="39.4708486" /><node id="254020154" x="-0.3348419" y="39.4683766" /><node id="6844144188" x="-0.3578514" y="39.4722064" /><node id="254020157" x="-0.3347889" y="39.4687379" /><node id="254020158" x="-0.3349284" y="39.4687516" /><node id="254020159" x="-0.3350023" y="39.4673526" /><node id="11465724478" x="-0.3498705" y="39.472962" /><node id="11510635088" x="-0.34475" y="39.4727487" /><node id="69575255" x="-0.3526242" y="39.4751603" /><node id="1617220209" x="-0.342469" y="39.474205" /><node id="11531424372" x="-0.335752" y="39.4701602" /><node id="1617220214" x="-0.3424298" y="39.4742859" /><node id="69573244" x="-0.3582484" y="39.4714134" /><node id="7659627599" x="-0.3351998" y="39.467083" /><node id="11555357370" x="-0.3387232" y="39.4669095" /><node id="7504499388" x="-0.349893" y="39.4691901" /><node id="7504499390" x="-0.3497026" y="39.4691448" /><node id="7659627606" x="-0.335388" y="39.4661929" /><node id="11465724629" x="-0.3510496" y="39.4748295" /><node id="11465724630" x="-0.3509573" y="39.4749674" /><node id="253487833" x="-0.3355835" y="39.4660809" /><node id="11514389210" x="-0.3566379" y="39.4721758" /><node id="253487835" x="-0.3373049" y="39.4665891" /><node id="3456938716" x="-0.3407194" y="39.4674985" /><node id="253487837" x="-0.3393137" y="39.4671759" /><node id="253487838" x="-0.3394333" y="39.4672103" /><node id="253487840" x="-0.3432664" y="39.4683032" /><node id="253487847" x="-0.3446866" y="39.46873" /><node id="253487848" x="-0.3456495" y="39.469" /><node id="253487849" x="-0.3469614" y="39.4693668" /><node id="6459132650" x="-0.3401189" y="39.4713839" type="traffic_light" /><node id="253487850" x="-0.348223" y="39.4697319" /><node id="253487851" x="-0.3484019" y="39.4696629" /><node id="6459132652" x="-0.3398532" y="39.4719182" type="traffic_light" /><node id="253487856" x="-0.3470168" y="39.469259" /><node id="253487857" x="-0.3457011" y="39.4688923" /><node id="430152434" x="-0.3372086" y="39.4665633" /><node id="253487859" x="-0.3447524" y="39.4686147" /><node id="430152433" x="-0.3372531" y="39.4664725" /><node id="253487865" x="-0.3438493" y="39.4686802" /><node id="11465724668" x="-0.3510056" y="39.4749824" /><node id="11465724670" x="-0.3510874" y="39.4748404" /><node id="253487876" x="-0.3432483" y="39.4682149" /><node id="253487877" x="-0.3425274" y="39.4680198" /><node id="253487878" x="-0.3418104" y="39.4678095" /><node id="253487882" x="-0.3405995" y="39.467466" /><node id="253487884" x="-0.3394702" y="39.4671356" /><node id="253487885" x="-0.3393295" y="39.4670904" /><node id="253487887" x="-0.3373468" y="39.466501" /><node id="253487888" x="-0.3362823" y="39.466183" /><node id="253487889" x="-0.3356047" y="39.4659792" type="traffic_light" /><node id="253487890" x="-0.3354774" y="39.4659446" /><node id="10188088084" x="-0.344344" y="39.4748712" /><node id="250293046" x="-0.3530799" y="39.4739692" /><node id="250293048" x="-0.3497505" y="39.4730011" /><node id="250293049" x="-0.3495862" y="39.47295" /><node id="250293054" x="-0.3501323" y="39.4728762" /><node id="250293055" x="-0.3521746" y="39.472236" /><node id="4050379584" x="-0.3388225" y="39.4716031" /><node id="250293057" x="-0.3536857" y="39.4727405" /><node id="250293058" x="-0.3524176" y="39.4709662" /><node id="250293061" x="-0.3517251" y="39.4723826" /><node id="131943240" x="-0.3543088" y="39.4716811" /><node id="131943242" x="-0.3544974" y="39.4716232" /><node id="250293069" x="-0.3525593" y="39.4749793" /><node id="131943250" x="-0.3547383" y="39.4714412" /><node id="250293075" x="-0.3496724" y="39.4744232" /><node id="250293077" x="-0.3492558" y="39.4742896" /><node id="131943255" x="-0.3545069" y="39.4712669" /><node id="131943261" x="-0.3541407" y="39.4713528" /><node id="131943264" x="-0.3539537" y="39.4714888" /><node id="131943270" x="-0.354034" y="39.4716639" /><node id="131943274" x="-0.3547751" y="39.4716355" /><node id="131943278" x="-0.3572901" y="39.4723423" /><node id="250293105" x="-0.3481204" y="39.4736526" /><node id="131943282" x="-0.3573146" y="39.4722912" /><node id="250293109" x="-0.3478082" y="39.4735592" /><node id="11631035258" x="-0.347209" y="39.4757223" /><node id="2507729787" x="-0.349269" y="39.4702049" /><node id="131943292" x="-0.3557576" y="39.4718318" /><node id="2507729789" x="-0.349473" y="39.4702383" /><node id="2507729790" x="-0.3491439" y="39.4705186" /><node id="2507729792" x="-0.3493216" y="39.4705654" /><node id="131943297" x="-0.355618" y="39.4717901" /><node id="250293124" x="-0.3512663" y="39.4725152" /><node id="2507729797" x="-0.3492285" y="39.4708093" /><node id="2507729798" x="-0.3488086" y="39.4713552" /><node id="2507729799" x="-0.348983" y="39.4714038" /><node id="11476259719" x="-0.348097" y="39.4730765" /><node id="11107591049" x="-0.3350083" y="39.4702749" /><node id="2507729796" x="-0.3490478" y="39.4707616" /><node id="11107591052" x="-0.3350441" y="39.4701557" /><node id="11107591056" x="-0.3352744" y="39.4705256" /><node id="11107591057" x="-0.3353462" y="39.4705296" /><node id="2507729808" x="-0.3488762" y="39.4716632" /><node id="2507729813" x="-0.3486531" y="39.4717265" /><node id="11107591062" x="-0.3356209" y="39.4701296" /><node id="11107591064" x="-0.3353361" y="39.470014" /><node id="2507729815" x="-0.3488306" y="39.4717737" /><node id="2507729823" x="-0.3483821" y="39.4723849" /><node id="2507729824" x="-0.3485622" y="39.4724254" /><node id="6844005289" x="-0.3564692" y="39.4672698" /><node id="6844005290" x="-0.3563792" y="39.4672434" /><node id="2507729836" x="-0.3484474" y="39.473305" type="traffic_light" /><node id="6844005293" x="-0.3511379" y="39.4656321" /><node id="430257069" x="-0.3573522" y="39.4722175" /><node id="2507729841" x="-0.3484627" y="39.4734044" /><node id="69573586" x="-0.3526317" y="39.4755476" /><node id="2507404247" x="-0.348271" y="39.4731386" /><node id="69573602" x="-0.3472197" y="39.4756959" /><node id="2507404262" x="-0.3481357" y="39.4735707" /><node id="12175234039" x="-0.3447999" y="39.4687621" /><node id="12175234040" x="-0.3448561" y="39.4686452" /><node id="430238721" x="-0.344816" y="39.4686335" /><node id="430238722" x="-0.344761" y="39.4687512" /><node id="11516300299" x="-0.3544155" y="39.4716501" /><node id="11516300300" x="-0.3546041" y="39.4712689" /><node id="1774851078" x="-0.3533497" y="39.4711183" /><node id="69573646" x="-0.348209" y="39.4739259" /><node id="6061534215" x="-0.3475638" y="39.4748937" /><node id="416117791" x="-0.3473488" y="39.4749148" /><node id="253488160" x="-0.3521075" y="39.4721462" /><node id="253488161" x="-0.3487011" y="39.4716139" /><node id="253488164" x="-0.3489346" y="39.4715282" /><node id="1578871854" x="-0.3351167" y="39.4676003" /><node id="1578871859" x="-0.335045" y="39.4680447" /><node id="11516300343" x="-0.3564453" y="39.4720383" /><node id="11516300344" x="-0.3564109" y="39.4721105" /><node id="253488190" x="-0.3487667" y="39.4714577" /><node id="430238784" x="-0.3377038" y="39.4705488" /><node id="430238785" x="-0.3378221" y="39.4705817" /><node id="7659627590" x="-0.3347763" y="39.4688133" /><node id="7659627591" x="-0.3349183" y="39.4688349" /><node id="10582871110" x="-0.3479737" y="39.4733401" /><node id="253488201" x="-0.3391067" y="39.4676533" /><node id="253488202" x="-0.3390595" y="39.4677528" /><node id="253488203" x="-0.3389645" y="39.4679553" /><node id="7659627596" x="-0.3349978" y="39.4683368" /><node id="7659627597" x="-0.3348608" y="39.4682888" /><node id="253488206" x="-0.3382326" y="39.4694712" /><node id="253488207" x="-0.3378302" y="39.4702803" /><node id="7659627600" x="-0.3350525" y="39.4670601" /><node id="430238801" x="-0.3400113" y="39.4713529" /><node id="253488209" x="-0.3378164" y="39.4707006" /><node id="253488208" x="-0.3376796" y="39.4706596" /><node id="260594772" x="-0.3577405" y="39.4714472" /><node id="253488213" x="-0.3382875" y="39.4695785" /><node id="7659627604" x="-0.3365304" y="39.4663545" /><node id="7659627607" x="-0.3352593" y="39.4661269" /><node id="253488215" x="-0.3386859" y="39.4687442" /><node id="318325847" x="-0.3484327" y="39.4740392" /><node id="318325850" x="-0.3520262" y="39.4753524" /><node id="253488217" x="-0.3387449" y="39.4686192" /><node id="318325845" x="-0.3483497" y="39.4742058" /><node id="253488222" x="-0.3392468" y="39.4675873" /><node id="253488224" x="-0.337419" y="39.4711881" /><node id="253488219" x="-0.3390546" y="39.4679825" /><node id="260594777" x="-0.357141" y="39.4726422" /><node id="253488228" x="-0.3382854" y="39.4708387" /><node id="430238821" x="-0.3417645" y="39.4725947" /><node id="430238822" x="-0.3421154" y="39.4726982" /><node id="430238837" x="-0.3469466" y="39.4755294" /><node id="6813248630" x="-0.3374225" y="39.4705839" /><node id="430238838" x="-0.3469139" y="39.475606" /><node id="3456932983" x="-0.3395923" y="39.4671742" /><node id="6813248633" x="-0.3371641" y="39.4711157" /><node id="6813248638" x="-0.3382789" y="39.4714543" /><node id="1254095999" x="-0.3495814" y="39.4699795" /><node id="6813248644" x="-0.3385437" y="39.4709161" /><node id="6813248659" x="-0.3427951" y="39.4721693" type="traffic_light" /><node id="6813248662" x="-0.3425249" y="39.4727056" /><node id="7600831638" x="-0.3556489" y="39.4757567" /><node id="7600831640" x="-0.3560735" y="39.4748039" /><node id="6844005528" x="-0.3568321" y="39.4732567" /><node id="252114076" x="-0.3531933" y="39.4657511" /><node id="6443891869" x="-0.3502532" y="39.4747476" type="traffic_light" /><node id="6443891871" x="-0.3503178" y="39.4746123" type="traffic_light" /><node id="69575845" x="-0.347504" y="39.4741572" /><node id="252114088" x="-0.3549525" y="39.4660958" /><node id="6813248682" x="-0.3445008" y="39.4726747" type="traffic_light" /><node id="252114091" x="-0.3555979" y="39.466205" /><node id="6857421994" x="-0.3544802" y="39.4711058" /><node id="252114093" x="-0.3544283" y="39.4659893" /><node id="252114094" x="-0.3542466" y="39.4663759" /><node id="252114095" x="-0.3539496" y="39.4659015" /><node id="252114096" x="-0.3534618" y="39.4658071" /><node id="6813248685" x="-0.3442366" y="39.4732095" type="traffic_light" /><node id="6857422003" x="-0.3541107" y="39.4718604" /><node id="6857422004" x="-0.3542279" y="39.4718386" /><node id="6813248693" x="-0.3470968" y="39.4740343" /><node id="6813248696" x="-0.347342" y="39.473527" /><node id="6857422008" x="-0.3523267" y="39.4720772" /><node id="4633920696" x="-0.3504847" y="39.4677361" /><node id="6857422009" x="-0.3524152" y="39.4721475" /><node id="6857422013" x="-0.3538331" y="39.47264" /><node id="3945383102" x="-0.3415362" y="39.4739445" /><node id="6857422014" x="-0.3537448" y="39.4726133" /><node id="6857422017" x="-0.3536217" y="39.4728682" /><node id="6857422018" x="-0.3537101" y="39.4728957" type="traffic_light" /><node id="7664026819" x="-0.3391531" y="39.4675595" /><node id="6813248710" x="-0.3457949" y="39.4736591" type="traffic_light" /><node id="7664026823" x="-0.3389203" y="39.4680446" /><node id="7664026824" x="-0.3390113" y="39.4680717" /><node id="6813248713" x="-0.3460546" y="39.4731353" type="traffic_light" /><node id="7664026826" x="-0.3386166" y="39.4686664" /><node id="7664026827" x="-0.3387101" y="39.4686931" /><node id="7664026828" x="-0.3382315" y="39.4696981" /><node id="7664026829" x="-0.3381337" y="39.4696695" /><node id="6857422025" x="-0.3531318" y="39.473862" type="traffic_light" /><node id="253488200" x="-0.3442877" y="39.4726104" /><node id="1254096081" x="-0.3495274" y="39.4701319" /><node id="6813248721" x="-0.3378278" y="39.4705481" /><node id="1254096084" x="-0.3493088" y="39.4700887" /><node id="6813248724" x="-0.3377187" y="39.4705168" /><node id="6857422040" x="-0.3521461" y="39.4751092" /><node id="6857422046" x="-0.3529227" y="39.4753545" /><node id="6879108319" x="-0.3519205" y="39.4722062" /><node id="6879108320" x="-0.3518549" y="39.4723408" /><node id="253488204" x="-0.3386926" y="39.4685171" /><node id="1870400740" x="-0.3546352" y="39.4712717" /><node id="253318373" x="-0.3417234" y="39.472315" type="traffic_light" /><node id="253318374" x="-0.3417486" y="39.472482" /><node id="253318375" x="-0.3422447" y="39.472623" /><node id="6857422052" x="-0.3525995" y="39.4749043" /><node id="253318378" x="-0.3425456" y="39.4722051" type="traffic_light" /><node id="253318379" x="-0.3425295" y="39.4720925" /><node id="6879108331" x="-0.3515099" y="39.4723352" /><node id="6879108332" x="-0.3515775" y="39.4724278" /><node id="253318380" x="-0.3420295" y="39.4719432" /><node id="253496559" x="-0.3490942" y="39.4706378" /><node id="253318384" x="-0.3412575" y="39.4736804" /><node id="11837758704" x="-0.3474775" y="39.4741424" /><node id="253318386" x="-0.3415879" y="39.4737771" /><node id="11527771379" x="-0.3374605" y="39.471101" /><node id="253318387" x="-0.3417253" y="39.4735074" /><node id="11837758709" x="-0.3477088" y="39.4736436" /><node id="69577966" x="-0.3492685" y="39.4744558" /><node id="1870400754" x="-0.3555821" y="39.471867" /><node id="1870400762" x="-0.3524699" y="39.4708582" /><node id="253496571" x="-0.3455819" y="39.4729958" /><node id="253496572" x="-0.3458761" y="39.4730824" /><node id="6879108352" x="-0.3484684" y="39.4740575" /><node id="6879108353" x="-0.3483898" y="39.4742157" /><node id="253318410" x="-0.3473787" y="39.4748423" /><node id="1870400779" x="-0.3548381" y="39.4715589" /><node id="6879108362" x="-0.3543611" y="39.4757793" /><node id="253488398" x="-0.3349693" y="39.4685138" /><node id="6879108367" x="-0.3546053" y="39.4758521" /><node id="69578001" x="-0.3521624" y="39.4754587" type="traffic_light" /><node id="260367648" x="-0.355689" y="39.4756713" /><node id="11222730017" x="-0.3439398" y="39.4746421" /><node id="10183339298" x="-0.3415989" y="39.4739354" /><node id="260367651" x="-0.355752" y="39.4755331" /><node id="11222730023" x="-0.3443889" y="39.4747727" /><node id="260367656" x="-0.3558752" y="39.4752738" /><node id="260367655" x="-0.3558123" y="39.4754079" /><node id="11222730028" x="-0.3452925" y="39.4750355" /><node id="260367662" x="-0.3559422" y="39.4751538" /><node id="253318449" x="-0.3412331" y="39.4737887" /><node id="253488433" x="-0.3388495" y="39.4710067" /><node id="11222730036" x="-0.3471208" y="39.4754471" /><node id="10183339315" x="-0.341554" y="39.4739676" /><node id="260367671" x="-0.3561083" y="39.4747399" /><node id="253488439" x="-0.3483122" y="39.4725593" /><node id="69578042" x="-0.3480594" y="39.4742015" /><node id="260367676" x="-0.356167" y="39.4746201" /><node id="260367678" x="-0.3562298" y="39.4744914" /><node id="3941598528" x="-0.352952" y="39.4659912" /><node id="260367683" x="-0.3562916" y="39.4743645" /><node id="253318465" x="-0.3380223" y="39.4713663" /><node id="10291881286" x="-0.335526" y="39.4660839" /><node id="260367689" x="-0.3563518" y="39.4742407" /><node id="250291530" x="-0.3538119" y="39.4715926" /><node id="250291534" x="-0.3538631" y="39.4716916" /><node id="260367695" x="-0.3564127" y="39.4741155" /><node id="260367696" x="-0.356475" y="39.4739872" /><node id="260367701" x="-0.3565337" y="39.4738664" /><node id="253318484" x="-0.3363254" y="39.4708785" /><node id="260367703" x="-0.3565912" y="39.473748" /><node id="69578072" x="-0.3505167" y="39.474825" /><node id="260367708" x="-0.3566571" y="39.4736124" /><node id="260367710" x="-0.3567227" y="39.4734773" /><node id="260367716" x="-0.3568954" y="39.4731217" /><node id="253496680" x="-0.3396114" y="39.4712309" /><node id="11510605161" x="-0.3452403" y="39.4728943" /><node id="260367722" x="-0.356962" y="39.4729917" /><node id="260367723" x="-0.3570275" y="39.4728621" /><node id="1307630958" x="-0.3424697" y="39.4726893" /><node id="11510605167" x="-0.3450386" y="39.4728344" /><node id="131964280" x="-0.3511782" y="39.4654645" /><node id="249507197" x="-0.3571937" y="39.4723346" /><node id="13564478859" x="-0.3523568" y="39.4708248" /><node id="13564478860" x="-0.3523027" y="39.470933" /><node id="253496733" x="-0.3362394" y="39.4662668" /><node id="249507229" x="-0.3572237" y="39.4722636" /><node id="249507243" x="-0.3545158" y="39.4758248" /><node id="99503537" x="-0.3475229" y="39.4749609" /><node id="69574070" x="-0.3479339" y="39.4742299" /><node id="6932415929" x="-0.3513358" y="39.4656797" /><node id="249507259" x="-0.3564771" y="39.4721297" /><node id="6813234629" x="-0.3421007" y="39.4727229" /><node id="6813234630" x="-0.3417634" y="39.4726231" /><node id="4585500105" x="-0.3476998" y="39.4736435" /><node id="11222811937" x="-0.347299" y="39.4755013" /><node id="253312469" x="-0.34158" y="39.4739158" /><node id="253312471" x="-0.3441763" y="39.4748831" /><node id="253312472" x="-0.344229" y="39.4747199" /><node id="253312474" x="-0.3440796" y="39.4746837" /><node id="253312477" x="-0.3439909" y="39.4748199" /><node id="253312480" x="-0.3470713" y="39.4755545" /><node id="253312484" x="-0.3452119" y="39.4750114" /><node id="253312485" x="-0.3434464" y="39.4744958" /><node id="253312489" x="-0.3423265" y="39.4742563" /><node id="253312493" x="-0.3452509" y="39.4751212" /><node id="253312496" x="-0.3470211" y="39.4756687" /><node id="253312498" x="-0.3472363" y="39.4756582" /><node id="99503602" x="-0.3352326" y="39.4668643" /><node id="99503604" x="-0.3354108" y="39.4661269" /><node id="6813234677" x="-0.3414722" y="39.4723953" /><node id="249507320" x="-0.3526462" y="39.4751178" /><node id="6813234681" x="-0.3417326" y="39.4718558" /><node id="1578472958" x="-0.3417726" y="39.4678858" /><node id="6843975180" x="-0.356786" y="39.473347" /><node id="249507346" x="-0.3525118" y="39.4750669" /><node id="249507354" x="-0.3557138" y="39.4719083" /><node id="10589799974" x="-0.3563948" y="39.4672121" /><node id="249507368" x="-0.3537478" y="39.4755886" /><node id="4592684588" x="-0.3493853" y="39.4699101" /><node id="249507375" x="-0.3526732" y="39.4750377" /><node id="6814791228" x="-0.3477711" y="39.4743951" /><node id="6814791230" x="-0.347543" y="39.4743279" /><node id="99503681" x="-0.3353229" y="39.4659504" /><node id="131964489" x="-0.349308" y="39.4700668" /><node id="249507401" x="-0.3531673" y="39.4739985" /><node id="131964503" x="-0.3494272" y="39.4701412" /><node id="249507432" x="-0.3537712" y="39.4727647" /><node id="4694957680" x="-0.3528746" y="39.475329" /><node id="11514439285" x="-0.3566709" y="39.4721065" /><node id="69578374" x="-0.352481" y="39.4751175" /><node id="260763283" x="-0.3556273" y="39.4758017" /><node id="131964566" x="-0.349512" y="39.4701448" /><node id="110317216" x="-0.3543862" y="39.4712808" /><node id="110317219" x="-0.3541734" y="39.4716936" /><node id="131964581" x="-0.3495769" y="39.4699595" /><node id="11555341991" x="-0.335566" y="39.4659689" /><node id="12401223341" x="-0.3503025" y="39.4676933" /><node id="131964590" x="-0.349465" y="39.4699088" /><node id="131964595" x="-0.3502527" y="39.4678146" /><node id="6466334389" x="-0.3471342" y="39.4740451" /><node id="6466334390" x="-0.3415243" y="39.4724107" /><node id="6466334391" x="-0.3382486" y="39.4714453" type="traffic_light" /><node id="110317239" x="-0.354582" y="39.4711056" /><node id="6466334393" x="-0.3373812" y="39.4705716" /><node id="13347313338" x="-0.3405628" y="39.4675407" /><node id="6466334395" x="-0.3417831" y="39.4718706" /><node id="6466334392" x="-0.3371309" y="39.4711057" type="traffic_light" /><node id="6466334394" x="-0.3385075" y="39.4709055" /><node id="110575287" x="-0.3565699" y="39.4670629" /><node id="110575293" x="-0.3564823" y="39.4670403" /><node id="69576376" x="-0.3552938" y="39.4760196" /><node id="7020390079" x="-0.3499941" y="39.46895" /><node id="7020390082" x="-0.3502022" y="39.4679376" /><node id="7020390077" x="-0.3498005" y="39.4689006" /><node id="7504490180" x="-0.3496396" y="39.4701519" /><node id="7020390084" x="-0.3503851" y="39.467988" /><node id="7504490181" x="-0.3496147" y="39.4698456" /><node id="7504490182" x="-0.3496933" y="39.4700369" /><node id="131964626" x="-0.3484937" y="39.4725969" /><node id="10202597078" x="-0.3555851" y="39.4758903" /><node id="4592684789" x="-0.349368" y="39.4699235" /><node id="7720865537" x="-0.3498694" y="39.4692456" /><node id="1828099859" x="-0.3475446" y="39.4742977" /><node id="1828099863" x="-0.3477885" y="39.4743664" /><node id="11525228384" x="-0.3396727" y="39.471865" /><node id="11525713776" x="-0.3402392" y="39.4720319" /><node id="6857422024" x="-0.3532215" y="39.4738899" type="traffic_light" /><node id="7791241106" x="-0.3392104" y="39.4670536" /><node id="7791241107" x="-0.3391702" y="39.4671332" /><node id="7791241108" x="-0.3393978" y="39.467282" /><node id="7791241109" x="-0.3392994" y="39.4672532" /><node id="7791241110" x="-0.339153" y="39.4677797" /><node id="7791241113" x="-0.3416609" y="39.467854" /><node id="7791241114" x="-0.3416994" y="39.467777" /><node id="7791241115" x="-0.3418997" y="39.4679215" /><node id="7791241116" x="-0.3419345" y="39.4678459" /><node id="69572507" x="-0.3577302" y="39.4724665" /><node id="252108711" x="-0.3531111" y="39.4660384" /><node id="252108712" x="-0.3511596" y="39.4704708" /><node id="252108713" x="-0.3553724" y="39.4692967" /><node id="252108715" x="-0.3504397" y="39.4678498" /><node id="252108718" x="-0.3554912" y="39.4667457" /><node id="252108744" x="-0.354523" y="39.4710183" /><node id="3456937933" x="-0.3395553" y="39.4672468" /><node id="252108755" x="-0.3497513" y="39.4690248" /><node id="252108758" x="-0.3499465" y="39.4690642" /><node id="252108761" x="-0.3548813" y="39.4705121" /><node id="252108760" x="-0.3547869" y="39.4704852" /><node id="252108767" x="-0.3556558" y="39.4687039" /><node id="252108769" x="-0.3540365" y="39.4663135" /><node id="252108771" x="-0.3549064" y="39.466572" /></nodes>