<edges><edge id="160792601_6879108367_0" from="160792601" to="6879108367" speed="13.88888888888889" numLanes="5" /><edge id="2507470923_2507404247_0" from="2507470923" to="2507404247" speed="13.88888888888889" numLanes="3" /><edge id="2507470923_5299079369_0" from="2507470923" to="5299079369" speed="13.88888888888889" numLanes="1" /><edge id="10202599511_69576376_0" from="10202599511" to="69576376" speed="13.88888888888889" numLanes="8" /><edge id="7020445806_10582871110_0" from="7020445806" to="10582871110" speed="13.88888888888889" numLanes="3" /><edge id="260594767_260594773_0" from="260594767" to="260594773" speed="13.88888888888889" numLanes="5" /><edge id="10962905205_253487837_0" from="10962905205" to="253487837" speed="13.88888888888889" numLanes="2" /><edge id="10962905206_7791241106_0" from="10962905206" to="7791241106" speed="13.88888888888889" numLanes="2" /><edge id="1870444665_2061050047_0" from="1870444665" to="2061050047" speed="13.88888888888889" numLanes="5" /><edge id="260594770_430257069_0" from="260594770" to="430257069" speed="13.88888888888889" numLanes="3" /><edge id="1870444672_252114076_0" from="1870444672" to="252114076" speed="13.88888888888889" numLanes="2" /><edge id="6004863106_7020390082_0" from="6004863106" to="7020390082" speed="13.88888888888889" numLanes="3" /><edge id="6004863107_252108715_0" from="6004863107" to="252108715" speed="13.88888888888889" numLanes="3" /><edge id="260594773_69573244_0" from="260594773" to="69573244" speed="13.88888888888889" numLanes="5" /><edge id="11524524177_11524524192_0" from="11524524177" to="11524524192" speed="13.88888888888889" numLanes="1" /><edge id="11524524192_11222730023_0" from="11524524192" to="11222730023" speed="13.88888888888889" numLanes="1" /><edge id="1957574822_253312477_0" from="1957574822" to="253312477" speed="13.88888888888889" numLanes="1" /><edge id="11524524202_253312485_0" from="11524524202" to="253312485" speed="13.88888888888889" numLanes="1" /><edge id="11473103030_250293109_0" from="11473103030" to="250293109" speed="13.88888888888889" numLanes="3" /><edge id="11473103031_2507404262_0" from="11473103031" to="2507404262" speed="13.88888888888889" numLanes="1" /><edge id="2061050047_5299079386_0" from="2061050047" to="5299079386" speed="13.88888888888889" numLanes="5" /><edge id="2061050047_1870444672_0" from="2061050047" to="1870444672" speed="13.88888888888889" numLanes="3" /><edge id="249528514_249528556_0" from="249528514" to="249528556" speed="8.333333333333334" numLanes="2" /><edge id="2061050050_253488206_0" from="2061050050" to="253488206" speed="13.88888888888889" numLanes="1" /><edge id="10233338053_253487865_0" from="10233338053" to="253487865" speed="13.88888888888889" numLanes="2" /><edge id="10233338056_253487847_0" from="10233338056" to="253487847" speed="13.88888888888889" numLanes="2" /><edge id="249528521_260594772_0" from="249528521" to="260594772" speed="13.88888888888889" numLanes="3" /><edge id="5299079369_10582871110_0" from="5299079369" to="10582871110" speed="13.88888888888889" numLanes="1" /><edge id="69572812_250293105_0" from="69572812" to="250293105" speed="13.88888888888889" numLanes="1" /><edge id="69572812_11837758709_0" from="69572812" to="11837758709" speed="13.88888888888889" numLanes="1" /><edge id="10233338068_10233338056_0" from="10233338068" to="10233338056" speed="13.88888888888889" numLanes="2" /><edge id="5299079386_131964280_0" from="5299079386" to="131964280" speed="13.88888888888889" numLanes="5" /><edge id="249528546_131943292_0" from="249528546" to="131943292" speed="13.88888888888889" numLanes="1" /><edge id="1996376297_250293049_0" from="1996376297" to="250293049" speed="13.88888888888889" numLanes="2" /><edge id="249528556_249528560_0" from="249528556" to="249528560" speed="8.333333333333334" numLanes="2" /><edge id="249528560_6844005289_0" from="249528560" to="6844005289" speed="8.333333333333334" numLanes="2" /><edge id="12534669558_13331227079_0" from="12534669558" to="13331227079" speed="13.88888888888889" numLanes="3" /><edge id="12534669559_106334767_0" from="12534669559" to="106334767" speed="13.88888888888889" numLanes="1" /><edge id="12534669560_7659627591_0" from="12534669560" to="7659627591" speed="13.88888888888889" numLanes="3" /><edge id="251871532_2507729792_0" from="251871532" to="2507729792" speed="13.88888888888889" numLanes="4" /><edge id="10300860718_131943255_0" from="10300860718" to="131943255" speed="13.88888888888889" numLanes="1" /><edge id="10300860719_11516300299_0" from="10300860719" to="11516300299" speed="13.88888888888889" numLanes="1" /><edge id="251871536_13564478860_0" from="251871536" to="13564478860" speed="13.88888888888889" numLanes="2" /><edge id="251871535_2507729836_0" from="251871535" to="2507729836" speed="13.88888888888889" numLanes="2" /><edge id="251871538_6879108331_0" from="251871538" to="6879108331" speed="13.88888888888889" numLanes="2" /><edge id="11524524339_1617220209_0" from="11524524339" to="1617220209" speed="13.88888888888889" numLanes="1" /><edge id="11524524340_1957574822_0" from="11524524340" to="1957574822" speed="13.88888888888889" numLanes="1" /><edge id="10300860729_69578001_0" from="10300860729" to="69578001" speed="13.88888888888889" numLanes="3" /><edge id="10300860730_6857422040_0" from="10300860730" to="6857422040" speed="13.88888888888889" numLanes="3" /><edge id="10300860733_250293069_0" from="10300860733" to="250293069" speed="13.88888888888889" numLanes="3" /><edge id="251871550_1996376297_0" from="251871550" to="1996376297" speed="13.88888888888889" numLanes="2" /><edge id="10300860734_7834505695_0" from="10300860734" to="7834505695" speed="8.333333333333334" numLanes="2" /><edge id="69583169_69575255_0" from="69583169" to="69575255" speed="13.88888888888889" numLanes="3" /><edge id="69583169_69573586_0" from="69583169" to="69573586" speed="13.88888888888889" numLanes="1" /><edge id="251871560_251871535_0" from="251871560" to="251871535" speed="13.88888888888889" numLanes="2" /><edge id="13331226972_12534669560_0" from="13331226972" to="12534669560" speed="13.88888888888889" numLanes="3" /><edge id="7873059201_253487887_0" from="7873059201" to="253487887" speed="13.88888888888889" numLanes="2" /><edge id="7873059202_7791241107_0" from="7873059202" to="7791241107" speed="13.88888888888889" numLanes="2" /><edge id="7873059204_430152434_0" from="7873059204" to="430152434" speed="13.88888888888889" numLanes="2" /><edge id="7873059205_253487888_0" from="7873059205" to="253487888" speed="13.88888888888889" numLanes="2" /><edge id="11466508681_251871550_0" from="11466508681" to="251871550" speed="13.88888888888889" numLanes="2" /><edge id="11525204366_253318384_0" from="11525204366" to="253318384" speed="13.88888888888889" numLanes="1" /><edge id="11525204367_6813234629_0" from="11525204367" to="6813234629" speed="13.88888888888889" numLanes="1" /><edge id="69577104_69583169_0" from="69577104" to="69583169" speed="13.88888888888889" numLanes="1" /><edge id="11512138129_249507197_0" from="11512138129" to="249507197" speed="13.88888888888889" numLanes="3" /><edge id="11512138130_11514439285_0" from="11512138130" to="11514439285" speed="13.88888888888889" numLanes="1" /><edge id="430012830_110575287_0" from="430012830" to="110575287" speed="8.333333333333334" numLanes="2" /><edge id="430012836_6844005293_0" from="430012836" to="6844005293" speed="13.88888888888889" numLanes="3" /><edge id="430012837_2061050047_0" from="430012837" to="2061050047" speed="13.88888888888889" numLanes="3" /><edge id="11975205288_11107591064_0" from="11975205288" to="11107591064" speed="13.88888888888889" numLanes="1" /><edge id="13331227066_12534669558_0" from="13331227066" to="12534669558" speed="13.88888888888889" numLanes="3" /><edge id="13331227079_11107591052_0" from="13331227079" to="11107591052" speed="13.88888888888889" numLanes="3" /><edge id="250290644_110575293_0" from="250290644" to="110575293" speed="13.88888888888889" numLanes="1" /><edge id="7834505695_249507401_0" from="7834505695" to="249507401" speed="8.333333333333334" numLanes="2" /><edge id="69575148_10300860730_0" from="69575148" to="10300860730" speed="13.88888888888889" numLanes="3" /><edge id="69575148_69578001_0" from="69575148" to="69578001" speed="13.88888888888889" numLanes="1" /><edge id="69577206_69575255_0" from="69577206" to="69575255" speed="13.88888888888889" numLanes="5" /><edge id="1578447355_7791241113_0" from="1578447355" to="7791241113" speed="13.88888888888889" numLanes="2" /><edge id="11196066314_12175234040_0" from="11196066314" to="12175234040" speed="13.88888888888889" numLanes="2" /><edge id="11196066315_253487848_0" from="11196066315" to="253487848" speed="13.88888888888889" numLanes="2" /><edge id="11196066316_253487857_0" from="11196066316" to="253487857" speed="13.88888888888889" numLanes="2" /><edge id="11196066317_11196066320_0" from="11196066317" to="11196066320" speed="13.88888888888889" numLanes="2" /><edge id="1828110861_6813248696_0" from="1828110861" to="6813248696" speed="13.88888888888889" numLanes="3" /><edge id="11196066319_11196066316_0" from="11196066319" to="11196066316" speed="13.88888888888889" numLanes="2" /><edge id="11196066320_253487849_0" from="11196066320" to="253487849" speed="13.88888888888889" numLanes="2" /><edge id="1828110859_253318379_0" from="1828110859" to="253318379" speed="13.88888888888889" numLanes="3" /><edge id="11196066323_253487856_0" from="11196066323" to="253487856" speed="13.88888888888889" numLanes="2" /><edge id="11196066325_253487851_0" from="11196066325" to="253487851" speed="13.88888888888889" numLanes="2" /><edge id="11196066326_131964489_0" from="11196066326" to="131964489" speed="13.88888888888889" numLanes="2" /><edge id="11196066327_4592684588_0" from="11196066327" to="4592684588" speed="13.88888888888889" numLanes="4" /><edge id="69575191_11465724630_0" from="69575191" to="11465724630" speed="13.88888888888889" numLanes="3" /><edge id="106334767_253318484_0" from="106334767" to="253318484" speed="13.88888888888889" numLanes="3" /><edge id="254020154_254020157_0" from="254020154" to="254020157" speed="13.88888888888889" numLanes="3" /><edge id="6844144188_260594767_0" from="6844144188" to="260594767" speed="13.88888888888889" numLanes="5" /><edge id="254020157_7659627590_0" from="254020157" to="7659627590" speed="13.88888888888889" numLanes="3" /><edge id="254020158_253488398_0" from="254020158" to="253488398" speed="13.88888888888889" numLanes="3" /><edge id="254020159_7659627597_0" from="254020159" to="7659627597" speed="13.88888888888889" numLanes="3" /><edge id="11465724478_250293054_0" from="11465724478" to="250293054" speed="13.88888888888889" numLanes="2" /><edge id="11510635088_6813248682_0" from="11510635088" to="6813248682" speed="13.88888888888889" numLanes="3" /><edge id="69575255_249507320_0" from="69575255" to="249507320" speed="13.88888888888889" numLanes="1" /><edge id="69575255_69578374_0" from="69575255" to="69578374" speed="13.88888888888889" numLanes="1" /><edge id="1617220209_10183339298_0" from="1617220209" to="10183339298" speed="13.88888888888889" numLanes="1" /><edge id="11531424372_11107591062_0" from="11531424372" to="11107591062" speed="13.88888888888889" numLanes="3" /><edge id="1617220214_11524524340_0" from="1617220214" to="11524524340" speed="13.88888888888889" numLanes="1" /><edge id="69573244_249528521_0" from="69573244" to="249528521" speed="13.88888888888889" numLanes="1" /><edge id="7659627599_99503602_0" from="7659627599" to="99503602" speed="13.88888888888889" numLanes="3" /><edge id="11555357370_7873059201_0" from="11555357370" to="7873059201" speed="13.88888888888889" numLanes="2" /><edge id="7504499388_252108758_0" from="7504499388" to="252108758" speed="13.88888888888889" numLanes="3" /><edge id="7504499390_11196066327_0" from="7504499390" to="11196066327" speed="13.88888888888889" numLanes="4" /><edge id="7659627606_99503604_0" from="7659627606" to="99503604" speed="13.88888888888889" numLanes="3" /><edge id="11465724629_6443891871_0" from="11465724629" to="6443891871" speed="13.88888888888889" numLanes="3" /><edge id="11465724630_11465724668_0" from="11465724630" to="11465724668" speed="13.88888888888889" numLanes="3" /><edge id="253487833_253496733_0" from="253487833" to="253496733" speed="13.88888888888889" numLanes="2" /><edge id="11514389210_11512138129_0" from="11514389210" to="11512138129" speed="13.88888888888889" numLanes="3" /><edge id="253487835_7873059202_0" from="253487835" to="7873059202" speed="13.88888888888889" numLanes="2" /><edge id="3456938716_253487882_0" from="3456938716" to="253487882" speed="13.88888888888889" numLanes="2" /><edge id="253487837_7791241109_0" from="253487837" to="7791241109" speed="13.88888888888889" numLanes="1" /><edge id="253487837_253487838_0" from="253487837" to="253487838" speed="13.88888888888889" numLanes="2" /><edge id="253487838_253487884_0" from="253487838" to="253487884" speed="13.88888888888889" numLanes="2" /><edge id="253487838_3456937933_0" from="253487838" to="3456937933" speed="13.88888888888889" numLanes="2" /><edge id="253487840_10233338068_0" from="253487840" to="10233338068" speed="13.88888888888889" numLanes="2" /><edge id="253487847_430238722_0" from="253487847" to="430238722" speed="13.88888888888889" numLanes="2" /><edge id="253487848_11196066317_0" from="253487848" to="11196066317" speed="13.88888888888889" numLanes="2" /><edge id="253487849_253487850_0" from="253487849" to="253487850" speed="13.88888888888889" numLanes="2" /><edge id="6459132650_430238801_0" from="6459132650" to="430238801" speed="13.88888888888889" numLanes="3" /><edge id="253487850_11196066326_0" from="253487850" to="11196066326" speed="13.88888888888889" numLanes="2" /><edge id="253487851_11196066323_0" from="253487851" to="11196066323" speed="13.88888888888889" numLanes="2" /><edge id="6459132652_11525713776_0" from="6459132652" to="11525713776" speed="13.88888888888889" numLanes="3" /><edge id="253487856_11196066319_0" from="253487856" to="11196066319" speed="13.88888888888889" numLanes="2" /><edge id="253487857_11196066314_0" from="253487857" to="11196066314" speed="13.88888888888889" numLanes="2" /><edge id="430152434_253487835_0" from="430152434" to="253487835" speed="13.88888888888889" numLanes="2" /><edge id="253487859_10233338053_0" from="253487859" to="10233338053" speed="13.88888888888889" numLanes="2" /><edge id="430152433_7873059205_0" from="430152433" to="7873059205" speed="13.88888888888889" numLanes="2" /><edge id="253487865_253487876_0" from="253487865" to="253487876" speed="13.88888888888889" numLanes="2" /><edge id="11465724668_318325850_0" from="11465724668" to="318325850" speed="13.88888888888889" numLanes="3" /><edge id="11465724670_11465724629_0" from="11465724670" to="11465724629" speed="13.88888888888889" numLanes="3" /><edge id="253487876_253487877_0" from="253487876" to="253487877" speed="13.88888888888889" numLanes="2" /><edge id="253487877_7791241116_0" from="253487877" to="7791241116" speed="13.88888888888889" numLanes="2" /><edge id="253487878_7791241114_0" from="253487878" to="7791241114" speed="13.88888888888889" numLanes="2" /><edge id="253487882_3456932983_0" from="253487882" to="3456932983" speed="13.88888888888889" numLanes="2" /><edge id="253487884_253487885_0" from="253487884" to="253487885" speed="13.88888888888889" numLanes="2" /><edge id="253487885_10962905206_0" from="253487885" to="10962905206" speed="13.88888888888889" numLanes="2" /><edge id="253487885_253487837_0" from="253487885" to="253487837" speed="13.88888888888889" numLanes="1" /><edge id="253487887_430152433_0" from="253487887" to="430152433" speed="13.88888888888889" numLanes="2" /><edge id="253487888_253487889_0" from="253487888" to="253487889" speed="13.88888888888889" numLanes="2" /><edge id="253487889_11555341991_0" from="253487889" to="11555341991" speed="13.88888888888889" numLanes="2" /><edge id="253487890_99503681_0" from="253487890" to="99503681" speed="13.88888888888889" numLanes="1" /><edge id="10188088084_253312493_0" from="10188088084" to="253312493" speed="13.88888888888889" numLanes="1" /><edge id="250293046_6857422052_0" from="250293046" to="6857422052" speed="13.88888888888889" numLanes="3" /><edge id="250293048_11465724478_0" from="250293048" to="11465724478" speed="13.88888888888889" numLanes="2" /><edge id="250293049_251871560_0" from="250293049" to="251871560" speed="13.88888888888889" numLanes="2" /><edge id="250293054_250293124_0" from="250293054" to="250293124" speed="13.88888888888889" numLanes="2" /><edge id="250293055_6857422009_0" from="250293055" to="6857422009" speed="13.88888888888889" numLanes="2" /><edge id="4050379584_11525228384_0" from="4050379584" to="11525228384" speed="13.88888888888889" numLanes="3" /><edge id="250293057_6857422017_0" from="250293057" to="6857422017" speed="13.88888888888889" numLanes="3" /><edge id="250293058_131943264_0" from="250293058" to="131943264" speed="13.88888888888889" numLanes="2" /><edge id="250293061_6879108320_0" from="250293061" to="6879108320" speed="13.88888888888889" numLanes="2" /><edge id="131943240_10300860719_0" from="131943240" to="10300860719" speed="13.88888888888889" numLanes="1" /><edge id="131943240_131943255_0" from="131943240" to="131943255" speed="8.333333333333334" numLanes="2" /><edge id="131943242_131943274_0" from="131943242" to="131943274" speed="13.88888888888889" numLanes="2" /><edge id="131943242_131943250_0" from="131943242" to="131943250" speed="13.88888888888889" numLanes="1" /><edge id="250293069_249507346_0" from="250293069" to="249507346" speed="13.88888888888889" numLanes="1" /><edge id="131943250_1870400740_0" from="131943250" to="1870400740" speed="13.88888888888889" numLanes="1" /><edge id="250293075_250293077_0" from="250293075" to="250293077" speed="13.88888888888889" numLanes="3" /><edge id="250293077_6879108352_0" from="250293077" to="6879108352" speed="13.88888888888889" numLanes="4" /><edge id="131943255_110317239_0" from="131943255" to="110317239" speed="8.333333333333334" numLanes="2" /><edge id="131943255_110317216_0" from="131943255" to="110317216" speed="13.88888888888889" numLanes="1" /><edge id="131943261_1774851078_0" from="131943261" to="1774851078" speed="13.88888888888889" numLanes="2" /><edge id="131943261_131943264_0" from="131943261" to="131943264" speed="13.88888888888889" numLanes="1" /><edge id="131943264_250291530_0" from="131943264" to="250291530" speed="13.88888888888889" numLanes="2" /><edge id="131943264_131943270_0" from="131943264" to="131943270" speed="13.88888888888889" numLanes="1" /><edge id="131943270_110317219_0" from="131943270" to="110317219" speed="13.88888888888889" numLanes="1" /><edge id="131943274_1870400754_0" from="131943274" to="1870400754" speed="13.88888888888889" numLanes="2" /><edge id="131943278_260594777_0" from="131943278" to="260594777" speed="13.88888888888889" numLanes="1" /><edge id="131943278_69572507_0" from="131943278" to="69572507" speed="13.88888888888889" numLanes="1" /><edge id="250293105_11473103031_0" from="250293105" to="11473103031" speed="13.88888888888889" numLanes="1" /><edge id="131943282_249507229_0" from="131943282" to="249507229" speed="13.88888888888889" numLanes="1" /><edge id="131943282_131943278_0" from="131943282" to="131943278" speed="13.88888888888889" numLanes="1" /><edge id="250293109_11837758709_0" from="250293109" to="11837758709" speed="13.88888888888889" numLanes="3" /><edge id="11631035258_69573602_0" from="11631035258" to="69573602" speed="13.88888888888889" numLanes="3" /><edge id="2507729787_2507729790_0" from="2507729787" to="2507729790" speed="13.88888888888889" numLanes="4" /><edge id="131943292_131943297_0" from="131943292" to="131943297" speed="13.88888888888889" numLanes="1" /><edge id="2507729789_131964566_0" from="2507729789" to="131964566" speed="13.88888888888889" numLanes="4" /><edge id="2507729790_253496559_0" from="2507729790" to="253496559" speed="13.88888888888889" numLanes="4" /><edge id="2507729792_2507729789_0" from="2507729792" to="2507729789" speed="13.88888888888889" numLanes="4" /><edge id="131943297_1870400779_0" from="131943297" to="1870400779" speed="13.88888888888889" numLanes="1" /><edge id="250293124_6879108332_0" from="250293124" to="6879108332" speed="13.88888888888889" numLanes="2" /><edge id="2507729797_251871532_0" from="2507729797" to="251871532" speed="13.88888888888889" numLanes="3" /><edge id="2507729798_253488190_0" from="2507729798" to="253488190" speed="13.88888888888889" numLanes="3" /><edge id="2507729799_2507729797_0" from="2507729799" to="2507729797" speed="13.88888888888889" numLanes="3" /><edge id="11476259719_7020445806_0" from="11476259719" to="7020445806" speed="13.88888888888889" numLanes="3" /><edge id="11107591049_11107591056_0" from="11107591049" to="11107591056" speed="13.88888888888889" numLanes="4" /><edge id="2507729796_2507729798_0" from="2507729796" to="2507729798" speed="13.88888888888889" numLanes="3" /><edge id="11107591052_11107591049_0" from="11107591052" to="11107591049" speed="13.88888888888889" numLanes="4" /><edge id="11107591056_11107591057_0" from="11107591056" to="11107591057" speed="13.88888888888889" numLanes="1" /><edge id="11107591057_11107591062_0" from="11107591057" to="11107591062" speed="13.88888888888889" numLanes="1" /><edge id="11107591057_12534669559_0" from="11107591057" to="12534669559" speed="13.88888888888889" numLanes="1" /><edge id="2507729808_253488164_0" from="2507729808" to="253488164" speed="13.88888888888889" numLanes="1" /><edge id="2507729813_2507729823_0" from="2507729813" to="2507729823" speed="13.88888888888889" numLanes="3" /><edge id="11107591062_11975205288_0" from="11107591062" to="11975205288" speed="13.88888888888889" numLanes="1" /><edge id="11107591064_13331226972_0" from="11107591064" to="13331226972" speed="13.88888888888889" numLanes="3" /><edge id="11107591064_11107591052_0" from="11107591064" to="11107591052" speed="13.88888888888889" numLanes="4" /><edge id="2507729815_2507729808_0" from="2507729815" to="2507729808" speed="13.88888888888889" numLanes="3" /><edge id="2507729823_253488439_0" from="2507729823" to="253488439" speed="13.88888888888889" numLanes="3" /><edge id="2507729824_2507729815_0" from="2507729824" to="2507729815" speed="13.88888888888889" numLanes="3" /><edge id="6844005289_430012830_0" from="6844005289" to="430012830" speed="8.333333333333334" numLanes="2" /><edge id="6844005290_252108767_0" from="6844005290" to="252108767" speed="13.88888888888889" numLanes="2" /><edge id="2507729836_2507470923_0" from="2507729836" to="2507470923" speed="13.88888888888889" numLanes="2" /><edge id="6844005293_12401223341_0" from="6844005293" to="12401223341" speed="13.88888888888889" numLanes="3" /><edge id="430257069_131943282_0" from="430257069" to="131943282" speed="13.88888888888889" numLanes="3" /><edge id="2507729841_250293048_0" from="2507729841" to="250293048" speed="13.88888888888889" numLanes="2" /><edge id="69573586_69577206_0" from="69573586" to="69577206" speed="13.88888888888889" numLanes="1" /><edge id="2507404247_131964626_0" from="2507404247" to="131964626" speed="13.88888888888889" numLanes="3" /><edge id="69573602_253312498_0" from="69573602" to="253312498" speed="13.88888888888889" numLanes="3" /><edge id="2507404262_2507729841_0" from="2507404262" to="2507729841" speed="13.88888888888889" numLanes="2" /><edge id="2507404262_2507470923_0" from="2507404262" to="2507470923" speed="13.88888888888889" numLanes="1" /><edge id="12175234039_11196066315_0" from="12175234039" to="11196066315" speed="13.88888888888889" numLanes="2" /><edge id="12175234040_430238721_0" from="12175234040" to="430238721" speed="13.88888888888889" numLanes="2" /><edge id="430238721_253487859_0" from="430238721" to="253487859" speed="13.88888888888889" numLanes="2" /><edge id="430238722_12175234039_0" from="430238722" to="12175234039" speed="13.88888888888889" numLanes="2" /><edge id="11516300299_131943242_0" from="11516300299" to="131943242" speed="13.88888888888889" numLanes="1" /><edge id="11516300300_10300860718_0" from="11516300300" to="10300860718" speed="13.88888888888889" numLanes="1" /><edge id="1774851078_1870400762_0" from="1774851078" to="1870400762" speed="13.88888888888889" numLanes="2" /><edge id="69573646_69572812_0" from="69573646" to="69572812" speed="13.88888888888889" numLanes="1" /><edge id="6061534215_6814791228_0" from="6061534215" to="6814791228" speed="13.88888888888889" numLanes="3" /><edge id="416117791_11222730036_0" from="416117791" to="11222730036" speed="13.88888888888889" numLanes="1" /><edge id="253488160_6879108319_0" from="253488160" to="6879108319" speed="13.88888888888889" numLanes="2" /><edge id="253488161_2507729813_0" from="253488161" to="2507729813" speed="13.88888888888889" numLanes="3" /><edge id="253488164_2507729799_0" from="253488164" to="2507729799" speed="13.88888888888889" numLanes="3" /><edge id="1578871854_7659627599_0" from="1578871854" to="7659627599" speed="13.88888888888889" numLanes="3" /><edge id="1578871859_1578871854_0" from="1578871859" to="1578871854" speed="13.88888888888889" numLanes="3" /><edge id="11516300343_249528546_0" from="11516300343" to="249528546" speed="13.88888888888889" numLanes="1" /><edge id="11516300344_249507259_0" from="11516300344" to="249507259" speed="13.88888888888889" numLanes="2" /><edge id="253488190_253488161_0" from="253488190" to="253488161" speed="13.88888888888889" numLanes="3" /><edge id="430238784_253488208_0" from="430238784" to="253488208" speed="13.88888888888889" numLanes="1" /><edge id="430238785_6813248721_0" from="430238785" to="6813248721" speed="13.88888888888889" numLanes="2" /><edge id="7659627590_13331227066_0" from="7659627590" to="13331227066" speed="13.88888888888889" numLanes="3" /><edge id="7659627591_254020158_0" from="7659627591" to="254020158" speed="13.88888888888889" numLanes="3" /><edge id="10582871110_11473103030_0" from="10582871110" to="11473103030" speed="13.88888888888889" numLanes="3" /><edge id="253488201_253488202_0" from="253488201" to="253488202" speed="13.88888888888889" numLanes="1" /><edge id="253488202_253488203_0" from="253488202" to="253488203" speed="13.88888888888889" numLanes="1" /><edge id="253488203_7664026823_0" from="253488203" to="7664026823" speed="13.88888888888889" numLanes="1" /><edge id="7659627596_1578871859_0" from="7659627596" to="1578871859" speed="13.88888888888889" numLanes="3" /><edge id="7659627597_254020154_0" from="7659627597" to="254020154" speed="13.88888888888889" numLanes="3" /><edge id="253488206_7664026829_0" from="253488206" to="7664026829" speed="13.88888888888889" numLanes="1" /><edge id="253488207_6813248724_0" from="253488207" to="6813248724" speed="13.88888888888889" numLanes="1" /><edge id="7659627600_254020159_0" from="7659627600" to="254020159" speed="13.88888888888889" numLanes="3" /><edge id="430238801_253496680_0" from="430238801" to="253496680" speed="13.88888888888889" numLanes="3" /><edge id="253488209_430238785_0" from="253488209" to="430238785" speed="13.88888888888889" numLanes="2" /><edge id="253488209_253488208_0" from="253488209" to="253488208" speed="13.88888888888889" numLanes="3" /><edge id="253488208_6813248630_0" from="253488208" to="6813248630" speed="13.88888888888889" numLanes="3" /><edge id="253488208_11527771379_0" from="253488208" to="11527771379" speed="13.88888888888889" numLanes="3" /><edge id="260594772_260594770_0" from="260594772" to="260594770" speed="13.88888888888889" numLanes="3" /><edge id="253488213_253488215_0" from="253488213" to="253488215" speed="13.88888888888889" numLanes="2" /><edge id="7659627604_7873059204_0" from="7659627604" to="7873059204" speed="13.88888888888889" numLanes="2" /><edge id="7659627607_7659627600_0" from="7659627607" to="7659627600" speed="13.88888888888889" numLanes="3" /><edge id="253488215_7664026827_0" from="253488215" to="7664026827" speed="13.88888888888889" numLanes="2" /><edge id="318325847_69573646_0" from="318325847" to="69573646" speed="13.88888888888889" numLanes="4" /><edge id="318325850_10300860729_0" from="318325850" to="10300860729" speed="13.88888888888889" numLanes="3" /><edge id="253488217_7664026824_0" from="253488217" to="7664026824" speed="13.88888888888889" numLanes="2" /><edge id="318325845_6879108353_0" from="318325845" to="6879108353" speed="13.88888888888889" numLanes="3" /><edge id="253488222_7791241108_0" from="253488222" to="7791241108" speed="13.88888888888889" numLanes="2" /><edge id="253488224_253318465_0" from="253488224" to="253318465" speed="13.88888888888889" numLanes="3" /><edge id="253488219_7791241110_0" from="253488219" to="7791241110" speed="13.88888888888889" numLanes="2" /><edge id="260594777_260367723_0" from="260594777" to="260367723" speed="13.88888888888889" numLanes="1" /><edge id="253488228_253488209_0" from="253488228" to="253488209" speed="13.88888888888889" numLanes="3" /><edge id="430238821_6813234630_0" from="430238821" to="6813234630" speed="13.88888888888889" numLanes="1" /><edge id="430238822_253318375_0" from="430238822" to="253318375" speed="13.88888888888889" numLanes="1" /><edge id="430238837_11222730028_0" from="430238837" to="11222730028" speed="13.88888888888889" numLanes="1" /><edge id="6813248630_6466334393_0" from="6813248630" to="6466334393" speed="13.88888888888889" numLanes="3" /><edge id="430238838_253312496_0" from="430238838" to="253312496" speed="13.88888888888889" numLanes="1" /><edge id="3456932983_253487884_0" from="3456932983" to="253487884" speed="13.88888888888889" numLanes="2" /><edge id="6813248633_253488224_0" from="6813248633" to="253488224" speed="13.88888888888889" numLanes="3" /><edge id="6813248638_4050379584_0" from="6813248638" to="4050379584" speed="13.88888888888889" numLanes="3" /><edge id="1254095999_131964581_0" from="1254095999" to="131964581" speed="13.88888888888889" numLanes="1" /><edge id="6813248644_6466334394_0" from="6813248644" to="6466334394" speed="13.88888888888889" 