<?xml version="1.0" encoding="UTF-8"?>

<!-- generated on 2026-04-28 23:23:17.170890 by Eclipse SUMO randomTrips.py v1.26.0
<configuration>
    <net-file value="scenarios/graph/graph.net.xml"/>
    <route-file value="scenarios/graph/graph.rou.xml"/>
    <end value="200.0"/>
    <period value="1.0"/>
</configuration>
-->

<!-- generated on 2026-04-28T23:23:17.153437+01:00 by Eclipse SUMO duarouter 1.26.0
<duarouterConfiguration xmlns:xsi="http://www.w3.org/2001/XMLSchema-instance" xsi:noNamespaceSchemaLocation="http://sumo.dlr.de/xsd/duarouterConfiguration.xsd">

    <input>
        <net-file value="scenarios/graph/graph.net.xml"/>
        <route-files value="trips.trips.xml"/>
    </input>

    <output>
        <output-file value="scenarios/graph/graph.rou.xml"/>
        <alternatives-output value="NUL"/>
    </output>

    <time>
        <begin value="0"/>
        <end value="200.0"/>
    </time>

    <report>
        <no-warnings value="true"/>
        <ignore-errors value="true"/>
        <no-step-log value="true"/>
    </report>

</duarouterConfiguration>
-->

<routes xmlns:xsi="http://www.w3.org/2001/XMLSchema-instance" xsi:noNamespaceSchemaLocation="http://sumo.dlr.de/xsd/routes_file.xsd">
    <vehicle id="0" depart="0.00">
        <route edges="260367689_260367683_0 260367683_260367678_0 260367678_260367676_0 260367676_260367671_0 260367671_7600831640_0 7600831640_260367662_0 260367662_260367656_0 260367656_260367655_0 260367655_260367651_0 260367651_260367648_0 260367648_7600831638_0 7600831638_260763283_0 260763283_10202597078_0 10202597078_10202599511_0 10202599511_69576376_0 69576376_160792601_0 160792601_6879108367_0 6879108367_249507243_0 249507243_6879108362_0 6879108362_249507368_0 249507368_6857422046_0 6857422046_4694957680_0 4694957680_69577206_0 69577206_69575255_0 69575255_69578374_0 69578374_69575148_0 69575148_10300860730_0 10300860730_6857422040_0"/>
    </vehicle>
    <vehicle id="1" depart="1.00">
        <route edges="1957574822_253312477_0 253312477_253312471_0 253312471_253312472_0 253312472_253312474_0 253312474_11222730017_0 11222730017_11524524202_0 11524524202_253312485_0 253312485_11524524339_0 11524524339_1617220209_0 1617220209_10183339298_0 10183339298_253312469_0 253312469_253318386_0 253318386_253318387_0 253318387_11525204367_0 11525204367_6813234629_0 6813234629_430238822_0 430238822_253318375_0 253318375_253318378_0 253318378_253318379_0 253318379_253318380_0 253318380_6466334395_0 6466334395_6813234681_0 6813234681_6459132650_0 6459132650_430238801_0 430238801_253496680_0 253496680_253488433_0 253488433_6813248644_0 6813248644_6466334394_0 6466334394_253488228_0 253488228_253488209_0 253488209_253488208_0 253488208_6813248630_0 6813248630_6466334393_0 6466334393_11531424372_0 11531424372_11107591062_0 11107591062_11975205288_0 11975205288_11107591064_0 11107591064_13331226972_0 13331226972_12534669560_0"/>
    </vehicle>
    <vehicle id="2" depart="2.00">
        <route edges="6061534215_6814791228_0 6814791228_1828099863_0 1828099863_69574070_0 69574070_69578042_0 69578042_318325845_0 318325845_6879108353_0 6879108353_69577966_0 69577966_6443891869_0 6443891869_69578072_0 69578072_69575191_0 69575191_11465724630_0 11465724630_11465724668_0 11465724668_318325850_0 318325850_10300860729_0"/>
    </vehicle>
    <vehicle id="3" depart="3.00">
        <route edges="69578042_318325845_0 318325845_6879108353_0 6879108353_69577966_0 69577966_6443891869_0 6443891869_69578072_0 69578072_69575191_0 69575191_11465724630_0 11465724630_11465724668_0 11465724668_318325850_0 318325850_10300860729_0 10300860729_69578001_0 69578001_69577104_0 69577104_69583169_0 69583169_69575255_0 69575255_69578374_0 69578374_69575148_0 69575148_10300860730_0 10300860730_6857422040_0 6857422040_11465724670_0 11465724670_11465724629_0 11465724629_6443891871_0 6443891871_250293075_0 250293075_250293077_0 250293077_6879108352_0 6879108352_318325847_0 318325847_69573646_0 69573646_69572812_0 69572812_11837758709_0 11837758709_4585500105_0 4585500105_11837758704_0 11837758704_69575845_0 69575845_1828099859_0 1828099859_6814791230_0 6814791230_253318410_0 253318410_416117791_0 416117791_11222730036_0 11222730036_253312480_0"/>
    </vehicle>
    <vehicle id="4" depart="4.00">
        <route edges="252108761_249528514_0 249528514_249528556_0 249528556_249528560_0 249528560_6844005289_0 6844005289_430012830_0 430012830_110575287_0 110575287_110575293_0 110575293_10589799974_0 10589799974_6844005290_0 6844005290_252108767_0 252108767_252108713_0 252108713_252108760_0 252108760_252108744_0 252108744_6857421994_0 6857421994_110317216_0 110317216_110317219_0 110317219_6857422003_0 6857422003_6857422014_0 6857422014_250293057_0 250293057_6857422017_0 6857422017_6857422025_0 6857422025_250293046_0 250293046_6857422052_0 6857422052_10300860733_0 10300860733_250293069_0 250293069_249507346_0 249507346_69578374_0 69578374_69577104_0 69577104_69583169_0 69583169_69575255_0 69575255_249507320_0 249507320_249507375_0 249507375_10300860734_0 10300860734_7834505695_0"/>
    </vehicle>
    <vehicle id="5" depart="5.00">
        <route edges="131964581_7504490181_0 7504490181_7720865537_0 7720865537_7504499388_0 7504499388_252108758_0 252108758_7020390079_0 7020390079_7020390084_0 7020390084_6004863107_0 6004863107_252108715_0 252108715_4633920696_0 4633920696_6932415929_0 6932415929_430012837_0 430012837_2061050047_0 2061050047_5299079386_0 5299079386_131964280_0 131964280_430012836_0 430012836_6844005293_0 6844005293_12401223341_0 12401223341_131964595_0 131964595_6004863106_0 6004863106_7020390082_0 7020390082_7020390077_0 7020390077_252108755_0 252108755_7504499390_0 7504499390_11196066327_0 11196066327_4592684588_0 4592684588_4592684789_0 4592684789_11196066325_0 11196066325_253487851_0 253487851_11196066323_0 11196066323_253487856_0 253487856_11196066319_0 11196066319_11196066316_0 11196066316_253487857_0 253487857_11196066314_0 11196066314_12175234040_0 12175234040_430238721_0 430238721_253487859_0 253487859_10233338053_0 10233338053_253487865_0 253487865_253487876_0 253487876_253487877_0 253487877_7791241116_0 7791241116_253487878_0 253487878_7791241114_0 7791241114_3456938716_0 3456938716_253487882_0 253487882_3456932983_0 3456932983_253487884_0 253487884_253487885_0 253487885_253487837_0 253487837_7791241109_0"/>
    </vehicle>
    <vehicle id="6" depart="6.00">
        <route edges="10300860733_250293069_0 250293069_249507346_0 249507346_69578374_0 69578374_69577104_0 69577104_69583169_0 69583169_69575255_0 69575255_249507320_0 249507320_249507375_0 249507375_10300860734_0 10300860734_7834505695_0 7834505695_249507401_0 249507401_6857422024_0 6857422024_6857422018_0 6857422018_249507432_0 249507432_6857422013_0 6857422013_6857422004_0 6857422004_131943240_0 131943240_131943255_0 131943255_110317216_0 110317216_131943261_0 131943261_131943264_0 131943264_131943270_0 131943270_110317219_0"/>
    </vehicle>
    <vehicle id="7" depart="7.00">
        <route edges="260367708_260367703_0 260367703_260367701_0 260367701_260367696_0 260367696_260367695_0 260367695_260367689_0 260367689_260367683_0 260367683_260367678_0 260367678_260367676_0 260367676_260367671_0 260367671_7600831640_0 7600831640_260367662_0 260367662_260367656_0 260367656_260367655_0 260367655_260367651_0 260367651_260367648_0 260367648_7600831638_0 7600831638_260763283_0 260763283_10202597078_0 10202597078_10202599511_0 10202599511_69576376_0 69576376_160792601_0 160792601_6879108367_0 6879108367_249507243_0 249507243_6879108362_0 6879108362_249507368_0 249507368_6857422046_0 6857422046_4694957680_0 4694957680_69577206_0 69577206_69575255_0 69575255_69578374_0 69578374_69575148_0 69575148_10300860730_0 10300860730_6857422040_0 6857422040_11465724670_0 11465724670_11465724629_0 11465724629_6443891871_0 6443891871_250293075_0 250293075_250293077_0 250293077_6879108352_0 6879108352_318325847_0 318325847_69573646_0 69573646_69572812_0 69572812_11837758709_0 11837758709_4585500105_0 4585500105_1828110861_0 1828110861_6813248696_0 6813248696_6813248713_0 6813248713_253496572_0 253496572_253496571_0 253496571_11510605161_0 11510605161_11510605167_0 11510605167_11510635088_0 11510635088_6813248682_0 6813248682_253488200_0 253488200_6813248659_0 6813248659_1828110859_0 1828110859_253318379_0 253318379_253318380_0 253318380_6466334395_0 6466334395_6813234681_0 6813234681_6459132650_0 6459132650_430238801_0 430238801_253496680_0 253496680_253488433_0 253488433_6813248644_0 6813248644_6466334394_0 6466334394_253488228_0 253488228_253488209_0 253488209_430238785_0 430238785_6813248721_0 6813248721_7664026828_0 7664026828_253488213_0 253488213_253488215_0 253488215_7664026827_0 7664026827_253488217_0 253488217_7664026824_0 7664026824_253488219_0 253488219_7791241110_0 7791241110_253488222_0 253488222_7791241108_0 7791241108_253487838_0 253487838_253487884_0 253487884_253487885_0 253487885_10962905206_0 10962905206_7791241106_0 7791241106_11555357370_0 11555357370_7873059201_0 7873059201_253487887_0 253487887_430152433_0"/>
    </vehicle>
    <vehicle id="8" depart="8.00">
        <route edges="131964595_6004863106_0 6004863106_7020390082_0 7020390082_7020390077_0 7020390077_252108755_0 252108755_7504499390_0 7504499390_11196066327_0 11196066327_4592684588_0 4592684588_4592684789_0 4592684789_131964489_0 131964489_1254096084_0 1254096084_2507729787_0 2507729787_2507729790_0 2507729790_253496559_0 253496559_2507729796_0 2507729796_2507729798_0 2507729798_253488190_0 253488190_253488161_0 253488161_2507729813_0 2507729813_2507729823_0 2507729823_253488439_0 253488439_11476259719_0 11476259719_7020445806_0 7020445806_10582871110_0 10582871110_11473103030_0 11473103030_250293109_0 250293109_11837758709_0 11837758709_4585500105_0 4585500105_1828110861_0 1828110861_6813248696_0 6813248696_6813248713_0 6813248713_253496572_0 253496572_253496571_0 253496571_11510605161_0 11510605161_11510605167_0 11510605167_11510635088_0 11510635088_6813248682_0 6813248682_253488200_0 253488200_6813248659_0 6813248659_1828110859_0 1828110859_253318379_0 253318379_253318380_0 253318380_6466334395_0 6466334395_6813234681_0 6813234681_6459132650_0 6459132650_430238801_0 430238801_253496680_0 253496680_253488433_0 253488433_6813248644_0 6813248644_6466334394_0 6466334394_253488228_0 253488228_253488209_0 253488209_430238785_0 430238785_6813248721_0 6813248721_7664026828_0 7664026828_253488213_0 253488213_253488215_0 253488215_7664026827_0 7664026827_253488217_0 253488217_7664026824_0 7664026824_253488219_0 253488219_7791241110_0"/>
    </vehicle>
    <vehicle id="9" depart="9.00">
        <route edges="6844005528_6843975180_0 6843975180_260367710_0 260367710_260367708_0 260367708_260367703_0 260367703_260367701_0 260367701_260367696_0 260367696_260367695_0 260367695_260367689_0 260367689_260367683_0 260367683_260367678_0 260367678_260367676_0 260367676_260367671_0 260367671_7600831640_0 7600831640_260367662_0 260367662_260367656_0 260367656_260367655_0 260367655_260367651_0 260367651_260367648_0 260367648_7600831638_0 7600831638_260763283_0 260763283_10202597078_0 10202597078_10202599511_0"/>
    </vehicle>
    <vehicle id="10" depart="10.00">
        <route edges="6844005290_252108767_0 252108767_252108713_0 252108713_252108760_0 252108760_252108744_0 252108744_6857421994_0 6857421994_110317216_0 110317216_131943261_0 131943261_1774851078_0 1774851078_1870400762_0 1870400762_13564478859_0 13564478859_252108712_0 252108712_7504490182_0 7504490182_1254095999_0 1254095999_131964581_0 131964581_131964590_0 131964590_4592684588_0 4592684588_4592684789_0 4592684789_11196066325_0 11196066325_253487851_0 253487851_11196066323_0 11196066323_253487856_0 253487856_11196066319_0 11196066319_11196066316_0 11196066316_253487857_0 253487857_11196066314_0 11196066314_12175234040_0 12175234040_430238721_0 430238721_253487859_0 253487859_10233338053_0 10233338053_253487865_0 253487865_253487876_0 253487876_253487877_0 253487877_7791241116_0 7791241116_253487878_0 253487878_7791241114_0 7791241114_3456938716_0 3456938716_253487882_0 253487882_3456932983_0 3456932983_253487884_0 253487884_253487885_0 253487885_10962905206_0 10962905206_7791241106_0 7791241106_11555357370_0 11555357370_7873059201_0 7873059201_253487887_0 253487887_430152433_0 430152433_7873059205_0"/>
    </vehicle>
    <vehicle id="11" depart="11.00">
        <route edges="250293075_250293077_0 250293077_6879108352_0 6879108352_318325847_0 318325847_69573646_0 69573646_69572812_0 69572812_11837758709_0 11837758709_4585500105_0 4585500105_1828110861_0 1828110861_6813248696_0 6813248696_6813248713_0 6813248713_253496572_0 253496572_253496571_0 253496571_11510605161_0 11510605161_11510605167_0 11510605167_11510635088_0 11510635088_6813248682_0 6813248682_253488200_0 253488200_6813248659_0 6813248659_1828110859_0 1828110859_253318379_0 253318379_253318380_0 253318380_6466334395_0 6466334395_6813234681_0 6813234681_6459132650_0 6459132650_430238801_0 430238801_253496680_0 253496680_253488433_0 253488433_6813248644_0 6813248644_6466334394_0 6466334394_253488228_0 253488228_253488209_0 253488209_430238785_0 430238785_6813248721_0 6813248721_7664026828_0 7664026828_253488213_0 253488213_253488215_0 253488215_7664026827_0 7664026827_253488217_0 253488217_7664026824_0 7664026824_253488219_0 253488219_7791241110_0 7791241110_253488222_0 253488222_7791241108_0 7791241108_253487838_0 253487838_253487884_0 253487884_253487885_0 253487885_10962905206_0 10962905206_7791241106_0 7791241106_11555357370_0 11555357370_7873059201_0"/>
    </vehicle>
    <vehicle id="12" depart="12.00">
        <route edges="7664026828_253488213_0 253488213_253488215_0 253488215_7664026827_0 7664026827_253488217_0 253488217_7664026824_0 7664026824_253488219_0 253488219_7791241110_0 7791241110_253488222_0 253488222_7791241108_0 7791241108_253487838_0 253487838_3456937933_0 3456937933_13347313338_0 13347313338_1578447355_0 1578447355_7791241113_0 7791241113_1578472958_0 1578472958_7791241115_0 7791241115_253487840_0 253487840_10233338068_0 10233338068_10233338056_0 10233338056_253487847_0 253487847_430238722_0 430238722_12175234039_0 12175234039_11196066315_0 11196066315_253487848_0 253487848_11196066317_0 11196066317_11196066320_0 11196066320_253487849_0 253487849_253487850_0 253487850_11196066326_0 11196066326_131964489_0 131964489_1254096084_0 1254096084_2507729787_0 2507729787_2507729790_0 2507729790_253496559_0 253496559_2507729796_0 2507729796_2507729798_0 2507729798_253488190_0 253488190_253488161_0 253488161_2507729813_0 2507729813_2507729823_0 2507729823_253488439_0 253488439_11476259719_0 11476259719_7020445806_0 7020445806_10582871110_0 10582871110_11473103030_0 11473103030_250293109_0 250293109_11837758709_0 11837758709_4585500105_0 4585500105_11837758704_0 11837758704_69575845_0 69575845_69574070_0 69574070_69578042_0 69578042_69573646_0 69573646_69572812_0 69572812_250293105_0 250293105_11473103031_0 11473103031_2507404262_0 2507404262_2507729841_0 2507729841_250293048_0 250293048_11465724478_0 11465724478_250293054_0 250293054_250293124_0 250293124_6879108332_0 6879108332_250293061_0 250293061_6879108320_0"/>
    </vehicle>
    <vehicle id="13" depart="13.00">
        <route edges="11465724629_6443891871_0 6443891871_250293075_0 250293075_250293077_0 250293077_6879108352_0 6879108352_318325847_0 318325847_69573646_0 69573646_69572812_0 69572812_11837758709_0 11837758709_4585500105_0 4585500105_11837758704_0 11837758704_69575845_0 69575845_69574070_0 69574070_69578042_0 69578042_318325845_0 318325845_6879108353_0 6879108353_69577966_0 69577966_6443891869_0 6443891869_69578072_0 69578072_69575191_0 69575191_11465724630_0 11465724630_11465724668_0 11465724668_318325850_0"/>
    </vehicle>
    <vehicle id="14" depart="14.00">
        <route edges="6879108332_250293061_0 250293061_6879108320_0 6879108320_250293055_0 250293055_6857422009_0 6857422009_250291534_0 250291534_131943270_0 131943270_110317219_0 110317219_131943240_0 131943240_131943255_0 131943255_110317216_0 110317216_131943261_0 131943261_1774851078_0 1774851078_1870400762_0 1870400762_13564478859_0 13564478859_252108712_0 252108712_7504490182_0 7504490182_1254095999_0 1254095999_131964581_0 131964581_131964590_0 131964590_4592684588_0 4592684588_4592684789_0 4592684789_131964489_0 131964489_1254096084_0 1254096084_2507729787_0 2507729787_2507729790_0 2507729790_253496559_0 253496559_2507729796_0"/>
    </vehicle>
    <vehicle id="15" depart="15.00">
        <route edges="6844005293_12401223341_0 12401223341_131964595_0 131964595_6004863106_0 6004863106_7020390082_0 7020390082_7020390077_0 7020390077_252108755_0 252108755_7504499390_0 7504499390_11196066327_0 11196066327_4592684588_0 4592684588_4592684789_0 4592684789_131964489_0 131964489_1254096084_0 1254096084_2507729787_0 2507729787_2507729790_0 2507729790_253496559_0 253496559_2507729796_0 2507729796_2507729798_0 2507729798_253488190_0 253488190_253488161_0 253488161_2507729813_0 2507729813_2507729823_0 2507729823_253488439_0 253488439_11476259719_0 11476259719_7020445806_0 7020445806_10582871110_0 10582871110_11473103030_0 11473103030_250293109_0 250293109_11837758709_0 11837758709_4585500105_0 4585500105_11837758704_0 11837758704_69575845_0 69575845_69574070_0 69574070_69578042_0 69578042_69573646_0 69573646_69572812_0 69572812_250293105_0 250293105_11473103031_0 11473103031_2507404262_0 2507404262_2507470923_0 2507470923_5299079369_0 5299079369_10582871110_0"/>
    </vehicle>
    <vehicle id="16" depart="16.00">
        <route edges="253487882_3456932983_0 3456932983_253487884_0 253487884_253487885_0 253487885_253487837_0 253487837_253487838_0 253487838_3456937933_0 3456937933_13347313338_0 13347313338_1578447355_0 1578447355_7791241113_0 7791241113_1578472958_0"/>
    </vehicle>
    <vehicle id="17" depart="17.00">
        <route edges="2507729813_2507729823_0 2507729823_253488439_0 253488439_11476259719_0 11476259719_7020445806_0 7020445806_10582871110_0 10582871110_11473103030_0 11473103030_250293109_0 250293109_11837758709_0 11837758709_4585500105_0 4585500105_1828110861_0 1828110861_6813248696_0 6813248696_6813248713_0 6813248713_253496572_0 253496572_253496571_0 253496571_11510605161_0 11510605161_11510605167_0 11510605167_11510635088_0 11510635088_6813248682_0 6813248682_253488200_0 253488200_6813248659_0 6813248659_1828110859_0 1828110859_253318379_0 253318379_253318380_0 253318380_6466334395_0 6466334395_6813234681_0 6813234681_6459132650_0 6459132650_430238801_0 430238801_253496680_0 253496680_253488433_0 253488433_6813248644_0 6813248644_6466334394_0 6466334394_253488228_0 253488228_253488209_0 253488209_253488208_0 253488208_6813248630_0 6813248630_6466334393_0 6466334393_11531424372_0 11531424372_11107591062_0 11107591062_11975205288_0 11975205288_11107591064_0 11107591064_13331226972_0 13331226972_12534669560_0 12534669560_7659627591_0 7659627591_254020158_0 254020158_253488398_0 253488398_7659627596_0 7659627596_1578871859_0 1578871859_1578871854_0 1578871854_7659627599_0 7659627599_99503602_0 99503602_7659627606_0 7659627606_99503604_0 99503604_253487890_0 253487890_99503681_0"/>
    </vehicle>
    <vehicle id="18" depart="18.00">
        <route edges="6857422018_249507432_0 249507432_6857422013_0 6857422013_6857422004_0 6857422004_131943240_0 131943240_131943255_0 131943255_110317216_0 110317216_131943261_0 131943261_1774851078_0 1774851078_1870400762_0 1870400762_13564478859_0 13564478859_252108712_0 252108712_7504490182_0 7504490182_1254095999_0 1254095999_131964581_0 131964581_131964590_0 131964590_4592684588_0 4592684588_4592684789_0 4592684789_11196066325_0 11196066325_253487851_0 253487851_11196066323_0 11196066323_253487856_0 253487856_11196066319_0 11196066319_11196066316_0 11196066316_253487857_0 253487857_11196066314_0 11196066314_12175234040_0 12175234040_430238721_0 430238721_253487859_0 253487859_10233338053_0 10233338053_253487865_0 253487865_253487876_0 253487876_253487877_0 253487877_7791241116_0 7791241116_253487878_0 253487878_7791241114_0 7791241114_3456938716_0 3456938716_253487882_0 253487882_3456932983_0 3456932983_253487884_0 253487884_253487885_0 253487885_10962905206_0 10962905206_7791241106_0 7791241106_11555357370_0 11555357370_7873059201_0 7873059201_253487887_0 253487887_430152433_0 430152433_7873059205_0 7873059205_253487888_0 253487888_253487889_0 253487889_11555341991_0 11555341991_253487890_0 253487890_99503681_0 99503681_7659627607_0 7659627607_7659627600_0 7659627600_254020159_0 254020159_7659627597_0"/>
    </vehicle>
    <vehicle id="19" depart="19.00">
        <route edges="69572812_250293105_0 250293105_11473103031_0 11473103031_2507404262_0 2507404262_2507470923_0 2507470923_5299079369_0 5299079369_10582871110_0 10582871110_11473103030_0 11473103030_250293109_0 250293109_11837758709_0 11837758709_4585500105_0 4585500105_1828110861_0 1828110861_6813248696_0 6813248696_6813248713_0 6813248713_253496572_0 253496572_253496571_0 253496571_11510605161_0 11510605161_11510605167_0 11510605167_11510635088_0 11510635088_6813248682_0 6813248682_253488200_0 253488200_6813248659_0 6813248659_1828110859_0 1828110859_253318379_0 253318379_253318380_0 253318380_6466334395_0 6466334395_6813234681_0 6813234681_6459132650_0 6459132650_430238801_0 430238801_253496680_0 253496680_253488433_0 253488433_6813248644_0 6813248644_6466334394_0 6466334394_253488228_0 253488228_253488209_0 253488209_253488208_0 253488208_6813248630_0"/>
    </vehicle>
    <vehicle id="20" depart="20.00">
        <route edges="430238784_253488208_0 253488208_11527771379_0 11527771379_253488224_0 253488224_253318465_0 253318465_6466334391_0 6466334391_6813248638_0 6813248638_4050379584_0 4050379584_11525228384_0 11525228384_6459132652_0 6459132652_11525713776_0 11525713776_6813234677_0 6813234677_6466334390_0 6466334390_253318374_0 253318374_253318375_0 253318375_1307630958_0 1307630958_6813248662_0 6813248662_6813248685_0 6813248685_6813248710_0 6813248710_6813248693_0 6813248693_6466334389_0 6466334389_11837758704_0 11837758704_69575845_0 69575845_69574070_0 69574070_69578042_0 69578042_69573646_0 69573646_69572812_0 69572812_250293105_0 250293105_11473103031_0 11473103031_2507404262_0 2507404262_2507729841_0 2507729841_250293048_0 250293048_11465724478_0 11465724478_250293054_0 250293054_250293124_0 250293124_6879108332_0 6879108332_250293061_0 250293061_6879108320_0 6879108320_250293055_0 250293055_6857422009_0 6857422009_250291534_0 250291534_131943270_0 131943270_110317219_0 110317219_131943240_0"/>
    </vehicle>
    <vehicle id="21" depart="21.00">
        <route edges="13331227079_11107591052_0 11107591052_11107591049_0 11107591049_11107591056_0 11107591056_11107591057_0 11107591057_12534669559_0 12534669559_106334767_0 106334767_253318484_0 253318484_6466334392_0 6466334392_6813248633_0 6813248633_253488224_0 253488224_253318465_0 253318465_6466334391_0 6466334391_6813248638_0 6813248638_4050379584_0 4050379584_11525228384_0 11525228384_6459132652_0 6459132652_11525713776_0 11525713776_6813234677_0 6813234677_6466334390_0 6466334390_253318374_0 253318374_253318375_0 253318375_1307630958_0 1307630958_6813248662_0 6813248662_6813248685_0 6813248685_6813248710_0 6813248710_6813248693_0 6813248693_6466334389_0 6466334389_11837758704_0 11837758704_69575845_0 69575845_69574070_0 69574070_69578042_0 69578042_69573646_0 69573646_69572812_0 69572812_250293105_0 250293105_11473103031_0 11473103031_2507404262_0 2507404262_2507729841_0 2507729841_250293048_0 250293048_11465724478_0 11465724478_250293054_0 250293054_250293124_0 250293124_6879108332_0 6879108332_250293061_0 250293061_6879108320_0 6879108320_250293055_0 250293055_6857422009_0 6857422009_250291534_0 250291534_131943270_0 131943270_110317219_0 110317219_131943240_0 131943240_10300860719_0 10300860719_11516300299_0 11516300299_131943242_0 131943242_131943274_0 131943274_1870400754_0 1870400754_249507354_0 249507354_11516300344_0 11516300344_249507259_0 249507259_11514389210_0"/>
    </vehicle>
    <vehicle id="22" depart="22.00">
        <route edges="11196066327_4592684588_0 4592684588_4592684789_0 4592684789_131964489_0 131964489_1254096084_0 1254096084_131964503_0 131964503_131964566_0 131964566_1254096081_0 1254096081_7504490180_0 7504490180_251871536_0 251871536_13564478860_0 13564478860_250293058_0 250293058_131943264_0 131943264_131943270_0 131943270_110317219_0 110317219_131943240_0 131943240_131943255_0 131943255_110317216_0 110317216_131943261_0 131943261_1774851078_0 1774851078_1870400762_0 1870400762_13564478859_0 13564478859_252108712_0"/>
    </vehicle>
    <vehicle id="23" depart="23.00">
        <route edges="11466508681_251871550_0 251871550_1996376297_0 1996376297_250293049_0 250293049_251871560_0 251871560_251871535_0 251871535_2507729836_0 2507729836_2507470923_0 2507470923_2507404247_0 2507404247_131964626_0 131964626_2507729824_0 2507729824_2507729815_0 2507729815_2507729808_0 2507729808_253488164_0 253488164_2507729799_0 2507729799_2507729797_0 2507729797_251871532_0 251871532_2507729792_0 2507729792_2507729789_0 2507729789_131964566_0 131964566_1254096081_0 1254096081_1254095999_0 1254095999_131964581_0 131964581_7504490181_0 7504490181_7720865537_0 7720865537_7504499388_0 7504499388_252108758_0 252108758_7020390079_0 7020390079_7020390084_0 7020390084_6004863107_0 6004863107_252108715_0 252108715_4633920696_0 4633920696_6932415929_0 6932415929_430012837_0 430012837_2061050047_0 2061050047_1870444672_0"/>
    </vehicle>
    <vehicle id="24" depart="24.00">
        <route edges="260367678_260367676_0 260367676_260367671_0 260367671_7600831640_0 7600831640_260367662_0 260367662_260367656_0 260367656_260367655_0 260367655_260367651_0 260367651_260367648_0 260367648_7600831638_0 7600831638_260763283_0 260763283_10202597078_0 10202597078_10202599511_0 10202599511_69576376_0 69576376_160792601_0 160792601_6879108367_0 6879108367_249507243_0 249507243_6879108362_0 6879108362_249507368_0 249507368_6857422046_0 6857422046_4694957680_0 4694957680_69577206_0 69577206_69575255_0 69575255_69578374_0 69578374_69575148_0 69575148_10300860730_0 10300860730_6857422040_0 6857422040_11465724670_0 11465724670_11465724629_0 11465724629_6443891871_0 6443891871_250293075_0 250293075_250293077_0 250293077_6879108352_0 6879108352_318325847_0 318325847_69573646_0 69573646_69572812_0 69572812_250293105_0 250293105_11473103031_0 11473103031_2507404262_0 2507404262_2507470923_0 2507470923_2507404247_0 2507404247_131964626_0 131964626_2507729824_0 2507729824_2507729815_0 2507729815_2507729808_0 2507729808_253488164_0 253488164_2507729799_0 2507729799_2507729797_0 2507729797_251871532_0 251871532_2507729792_0 2507729792_2507729789_0 2507729789_131964566_0 131964566_1254096081_0 1254096081_1254095999_0 1254095999_131964581_0 131964581_131964590_0 131964590_4592684588_0 4592684588_4592684789_0 4592684789_131964489_0 131964489_1254096084_0 1254096084_2507729787_0 2507729787_2507729790_0 2507729790_253496559_0"/>
    </vehicle>
    <vehicle id="25" depart="25.00">
        <route edges="2507729796_2507729798_0 2507729798_253488190_0 253488190_253488161_0 253488161_2507729813_0 2507729813_2507729823_0 2507729823_253488439_0 253488439_11476259719_0 11476259719_7020445806_0 7020445806_10582871110_0 10582871110_11473103030_0 11473103030_250293109_0 250293109_11837758709_0 11837758709_4585500105_0 4585500105_11837758704_0 11837758704_69575845_0 69575845_69574070_0 69574070_69578042_0 69578042_69573646_0 69573646_69572812_0 69572812_250293105_0 250293105_11473103031_0 11473103031_2507404262_0 2507404262_2507729841_0 2507729841_250293048_0 250293048_11465724478_0 11465724478_250293054_0 250293054_250293124_0 250293124_6879108332_0 6879108332_250293061_0 250293061_6879108320_0 6879108320_250293055_0 250293055_6857422009_0 6857422009_250291534_0 250291534_131943270_0 131943270_110317219_0 110317219_131943240_0 131943240_10300860719_0 10300860719_11516300299_0 11516300299_131943242_0 131943242_131943274_0 131943274_1870400754_0 1870400754_249507354_0 249507354_11516300344_0 11516300344_249507259_0 249507259_11514389210_0 11514389210_11512138129_0 11512138129_249507197_0 249507197_131943278_0 131943278_69572507_0 69572507_6844144188_0 6844144188_260594767_0 260594767_260594773_0 260594773_69573244_0 69573244_249528521_0 249528521_260594772_0 260594772_260594770_0 260594770_430257069_0 430257069_131943282_0 131943282_249507229_0"/>
    </vehicle>
    <vehicle id="26" depart="26.00">