<?xml version="1.0" encoding="UTF-8"?>

<!-- generated on 2026-04-28T23:23:16.619888+01:00 by Eclipse SUMO netconvert 1.26.0
<netconvertConfiguration xmlns:xsi="http://www.w3.org/2001/XMLSchema-instance" xsi:noNamespaceSchemaLocation="http://sumo.dlr.de/xsd/netconvertConfiguration.xsd">

    <input>
        <node-files value="scenarios/graph/graph.nod.xml"/>
        <edge-files value="scenarios/graph/graph.edg.xml"/>
    </input>

    <output>
        <output-file value="scenarios/graph/graph.net.xml"/>
    </output>

    <projection>
        <proj.utm value="true"/>
    </projection>

    <tls_building>
        <tls.join value="true"/>
        <tls.guess-signals value="true"/>
    </tls_building>

    <junctions>
        <no-internal-links value="true"/>
    </junctions>

</netconvertConfiguration>
-->

<net version="1.20" junctionCornerDetail="5" limitTurnSpeed="5.50" xmlns:xsi="http://www.w3.org/2001/XMLSchema-instance" xsi:noNamespaceSchemaLocation="http://sumo.dlr.de/xsd/net_file.xsd">

    <location netOffset="-727243.83,-4371771.74" convBoundary="0.00,0.00,2027.91,1170.55" origBoundary="-0.358248,39.465399,-0.334776,39.476020" projParameter="+proj=utm +zone=30 +ellps=WGS84 +datum=WGS84 +units=m +no_defs"/>

    <edge id="10183339298_253312469_0" from="10183339298" to="253312469" priority="-1">
        <lane id="10183339298_253312469_0_0" index="0" speed="13.89" length="2.72" shape="1423.12,972.58 1423.24,972.42"/>
    </edge>
    <edge id="10183339315_253312489_0" from="10183339315" to="253312489" priority="-1">
        <lane id="10183339315_253312489_0_0" index="0" speed="13.89" length="73.81" shape="1428.53,979.03 1361.13,1009.11"/>
    </edge>
    <edge id="10188088084_253312493_0" from="10188088084" to="253312493" priority="-1">
        <lane id="10188088084_253312493_0_0" index="0" speed="13.89" length="82.85" shape="1184.73,1072.53 1106.71,1097.71"/>
    </edge>
    <edge id="10202597078_10202599511_0" from="10202597078" to="10202599511" priority="-1">
        <lane id="10202597078_10202599511_0_0" index="0" speed="13.89" length="8.90" shape="219.49,1131.92 219.69,1131.95"/>
        <lane id="10202597078_10202599511_0_1" index="1" speed="13.89" length="8.90" shape="219.05,1135.09 219.25,1135.12"/>
        <lane id="10202597078_10202599511_0_2" index="2" speed="13.89" length="8.90" shape="218.61,1138.26 218.80,1138.29"/>
        <lane id="10202597078_10202599511_0_3" index="3" speed="13.89" length="8.90" shape="218.16,1141.43 218.36,1141.45"/>
        <lane id="10202597078_10202599511_0_4" index="4" speed="13.89" length="8.90" shape="217.72,1144.60 217.92,1144.62"/>
        <lane id="10202597078_10202599511_0_5" index="5" speed="13.89" length="8.90" shape="217.27,1147.76 217.47,1147.79"/>
        <lane id="10202597078_10202599511_0_6" index="6" speed="13.89" length="8.90" shape="216.83,1150.93 217.03,1150.96"/>
        <lane id="10202597078_10202599511_0_7" index="7" speed="13.89" length="8.90" shape="216.39,1154.10 216.59,1154.13"/>
    </edge>
    <edge id="10202599511_69576376_0" from="10202599511" to="69576376" priority="-1">
        <lane id="10202599511_69576376_0_0" index="0" speed="13.89" length="45.96" shape="228.37,1135.32 251.81,1150.14"/>
        <lane id="10202599511_69576376_0_1" index="1" speed="13.89" length="45.96" shape="226.66,1138.02 250.10,1152.84"/>
        <lane id="10202599511_69576376_0_2" index="2" speed="13.89" length="45.96" shape="224.95,1140.72 248.39,1155.55"/>
        <lane id="10202599511_69576376_0_3" index="3" speed="13.89" length="45.96" shape="223.24,1143.43 246.68,1158.25"/>
        <lane id="10202599511_69576376_0_4" index="4" speed="13.89" length="45.96" shape="221.53,1146.13 244.96,1160.96"/>
        <lane id="10202599511_69576376_0_5" index="5" speed="13.89" length="45.96" shape="219.82,1148.84 243.25,1163.66"/>
        <lane id="10202599511_69576376_0_6" index="6" speed="13.89" length="45.96" shape="218.11,1151.54 241.54,1166.37"/>
        <lane id="10202599511_69576376_0_7" index="7" speed="13.89" length="45.96" shape="216.40,1154.25 239.83,1169.07"/>
    </edge>
    <edge id="10233338053_253487865_0" from="10233338053" to="253487865" priority="-1">
        <lane id="10233338053_253487865_0_0" index="0" speed="13.89" length="8.92" shape="1239.29,382.55 1244.88,380.71"/>
        <lane id="10233338053_253487865_0_1" index="1" speed="13.89" length="8.92" shape="1240.30,385.59 1245.88,383.75"/>
    </edge>
    <edge id="10233338056_253487847_0" from="10233338056" to="253487847" priority="-1">
        <lane id="10233338056_253487847_0_0" index="0" speed="13.89" length="60.46" shape="1233.43,404.29 1176.27,393.26"/>
        <lane id="10233338056_253487847_0_1" index="1" speed="13.89" length="60.46" shape="1234.04,401.15 1176.87,390.12"/>
    </edge>
    <edge id="10233338068_10233338056_0" from="10233338068" to="10233338056" priority="-1">
        <lane id="10233338068_10233338056_0_0" index="0" speed="13.89" length="27.61" shape="1262.28,397.41 1235.53,404.23"/>
        <lane id="10233338068_10233338056_0_1" index="1" speed="13.89" length="27.61" shape="1261.49,394.31 1234.74,401.13"/>
    </edge>
    <edge id="10291881286_253487833_0" from="10291881286" to="253487833" priority="-1">
        <lane id="10291881286_253487833_0_0" index="0" speed="13.89" length="4.96" shape="1970.67,122.44 1968.31,122.21"/>
        <lane id="10291881286_253487833_0_1" index="1" speed="13.89" length="4.96" shape="1970.98,119.25 1968.62,119.02"/>
    </edge>
    <edge id="10300860718_131943255_0" from="10300860718" to="131943255" priority="-1">
        <lane id="10300860718_131943255_0_0" index="0" speed="13.89" length="12.53" shape="313.81,642.62 314.01,642.63"/>
    </edge>
    <edge id="10300860719_11516300299_0" from="10300860719" to="11516300299" priority="-1">
        <lane id="10300860719_11516300299_0_0" index="0" speed="13.89" length="4.14" shape="332.11,690.88 328.46,689.26"/>
    </edge>
    <edge id="10300860729_69578001_0" from="10300860729" to="69578001" priority="-1">
        <lane id="10300860729_69578001_0_0" index="0" speed="13.89" length="12.94" shape="525.17,1113.20 520.20,1117.91"/>
        <lane id="10300860729_69578001_0_1" index="1" speed="13.89" length="12.94" shape="522.97,1110.88 518.00,1115.59"/>
        <lane id="10300860729_69578001_0_2" index="2" speed="13.89" length="12.94" shape="520.76,1108.56 515.79,1113.27"/>
    </edge>
    <edge id="10300860730_6857422040_0" from="10300860730" to="6857422040" priority="-1">
        <lane id="10300860730_6857422040_0_0" index="0" speed="13.89" length="2.98" shape="509.10,1069.88 511.15,1069.61"/>
        <lane id="10300860730_6857422040_0_1" index="1" speed="13.89" length="2.98" shape="509.51,1073.05 511.56,1072.79"/>
        <lane id="10300860730_6857422040_0_2" index="2" speed="13.89" length="2.98" shape="509.91,1076.22 511.97,1075.96"/>
    </edge>
    <edge id="10300860733_250293069_0" from="10300860733" to="250293069" priority="-1">
        <lane id="10300860733_250293069_0_0" index="0" speed="13.89" length="5.80" shape="483.42,1053.85 484.02,1055.54"/>
        <lane id="10300860733_250293069_0_1" index="1" speed="13.89" length="5.80" shape="480.41,1054.91 481.00,1056.61"/>
        <lane id="10300860733_250293069_0_2" index="2" speed="13.89" length="5.80" shape="477.39,1055.98 477.99,1057.67"/>
    </edge>
    <edge id="10300860734_7834505695_0" from="10300860734" to="7834505695" priority="-1">
        <lane id="10300860734_7834505695_0_0" index="0" speed="8.33" length="3.35" shape="461.43,1061.12 460.63,1058.30"/>
        <lane id="10300860734_7834505695_0_1" index="1" speed="8.33" length="3.35" shape="464.51,1060.25 463.71,1057.43"/>
    </edge>
    <edge id="10582871110_11473103030_0" from="10582871110" to="11473103030" priority="-1">
        <lane id="10582871110_11473103030_0_0" index="0" speed="13.89" length="24.16" shape="886.94,892.19 895.41,908.70"/>
        <lane id="10582871110_11473103030_0_1" index="1" speed="13.89" length="24.16" shape="884.09,893.65 892.57,910.16"/>
        <lane id="10582871110_11473103030_0_2" index="2" speed="13.89" length="24.16" shape="881.25,895.11 889.72,911.62"/>
    </edge>
    <edge id="10589799974_6844005290_0" from="10589799974" to="6844005290" priority="-1">
        <lane id="10589799974_6844005290_0_0" index="0" speed="13.89" length="3.72" shape="177.73,188.64 178.88,191.88"/>
        <lane id="10589799974_6844005290_0_1" index="1" speed="13.89" length="3.72" shape="174.71,189.71 175.86,192.95"/>
    </edge>
    <edge id="106334767_253318484_0" from="106334767" to="253318484" priority="-1">
        <lane id="106334767_253318484_0_0" index="0" speed="13.89" length="9.55" shape="1896.05,653.64 1890.52,655.50"/>
        <lane id="106334767_253318484_0_1" index="1" speed="13.89" length="9.55" shape="1895.03,650.60 1889.50,652.47"/>
        <lane id="106334767_253318484_0_2" index="2" speed="13.89" length="9.55" shape="1894.00,647.57 1888.48,649.43"/>
    </edge>
    <edge id="10962905205_253487837_0" from="10962905205" to="253487837" priority="-1">
        <lane id="10962905205_253487837_0_0" index="0" speed="13.89" length="6.72" shape="1650.06,232.04 1649.88,232.11"/>
        <lane id="10962905205_253487837_0_1" index="1" speed="13.89" length="6.72" shape="1649.06,229.00 1648.87,229.07"/>
    </edge>
    <edge id="10962905206_7791241106_0" from="10962905206" to="7791241106" priority="-1">
        <lane id="10962905206_7791241106_0_0" index="0" speed="13.89" length="6.48" shape="1644.59,213.75 1650.41,211.59"/>
        <lane id="10962905206_7791241106_0_1" index="1" speed="13.89" length="6.48" shape="1645.71,216.75 1651.52,214.59"/>
    </edge>
    <edge id="110317216_110317219_0" from="110317216" to="110317219" priority="-1">
        <lane id="110317216_110317219_0_0" index="0" speed="13.89" length="49.36" shape="347.85,655.61 358.81,685.58"/>
        <lane id="110317216_110317219_0_1" index="1" speed="13.89" length="49.36" shape="344.85,656.71 355.81,686.67"/>
        <lane id="110317216_110317219_0_2" index="2" speed="13.89" length="49.36" shape="341.84,657.81 352.80,687.77"/>
        <lane id="110317216_110317219_0_3" index="3" speed="13.89" length="49.36" shape="338.84,658.91 349.80,688.87"/>
    </edge>
    <edge id="110317216_131943261_0" from="110317216" to="131943261" priority="-1">
        <lane id="110317216_131943261_0_0" index="0" speed="13.89" length="22.59" shape="349.00,651.81 349.18,651.88"/>
    </edge>
    <edge id="110317219_131943240_0" from="110317219" to="131943240" priority="-1">
        <lane id="110317219_131943240_0_0" index="0" speed="13.89" length="11.74" shape="345.48,694.17 341.35,693.56"/>
    </edge>
    <edge id="110317219_6857422003_0" from="110317219" to="6857422003" priority="-1">
        <lane id="110317219_6857422003_0_0" index="0" speed="13.89" length="19.29" shape="359.29,698.41 362.17,709.48"/>
        <lane id="110317219_6857422003_0_1" index="1" speed="13.89" length="19.29" shape="356.20,699.21 359.07,710.29"/>
        <lane id="110317219_6857422003_0_2" index="2" speed="13.89" length="19.29" shape="353.10,700.01 355.98,711.09"/>
    </edge>
    <edge id="110317239_252108761_0" from="110317239" to="252108761" priority="-1">
        <lane id="110317239_252108761_0_0" index="0" speed="8.33" length="70.77" shape="311.85,628.33 288.14,561.97"/>
        <lane id="110317239_252108761_0_1" index="1" speed="8.33" length="70.77" shape="314.86,627.25 291.15,560.89"/>
    </edge>
    <edge id="110575287_110575293_0" from="110575287" to="110575293" priority="-1">
        <lane id="110575287_110575293_0_0" index="0" speed="13.89" length="7.94" shape="157.89,158.28 158.08,158.22"/>
        <lane id="110575287_110575293_0_1" index="1" speed="13.89" length="7.94" shape="158.80,161.34 159.00,161.28"/>
        <lane id="110575287_110575293_0_2" index="2" speed="13.89" length="7.94" shape="159.72,164.41 159.91,164.35"/>
        <lane id="110575287_110575293_0_3" index="3" speed="13.89" length="7.94" shape="160.64,167.47 160.83,167.41"/>
        <lane id="110575287_110575293_0_4" index="4" speed="13.89" length="7.94" shape="161.56,170.54 161.75,170.48"/>
    </edge>
    <edge id="110575293_10589799974_0" from="110575293" to="10589799974" priority="-1">
        <lane id="110575293_10589799974_0_0" index="0" speed="13.89" length="20.51" shape="172.09,173.01 177.63,188.35"/>
        <lane id="110575293_10589799974_0_1" index="1" speed="13.89" length="20.51" shape="169.08,174.10 174.62,189.44"/>
    </edge>
    <edge id="110575293_252108718_0" from="110575293" to="252108718" priority="-1">
        <lane id="110575293_252108718_0_0" index="0" speed="13.89" length="91.37" shape="171.25,153.79 247.52,127.08"/>
        <lane id="110575293_252108718_0_1" index="1" speed="13.89" length="91.37" shape="172.30,156.81 248.58,130.10"/>
        <lane id="110575293_252108718_0_2" index="2" speed="13.89" length="91.37" shape="173.36,159.83 249.63,133.12"/>
        <lane id="110575293_252108718_0_3" index="3" speed="13.89" length="91.37" shape="174.42,162.85 250.69,136.14"/>
        <lane id="110575293_252108718_0_4" index="4" speed="13.89" length="91.37" shape="175.48,165.87 251.75,139.16"/>
    </edge>
    <edge id="11107591049_11107591056_0" from="11107591049" to="11107591056" priority="-1">
        <lane id="11107591049_11107591056_0_0" index="0" speed="13.89" length="36.05" shape="2011.57,591.68 1988.99,617.53"/>
        <lane id="11107591049_11107591056_0_1" index="1" speed="13.89" length="36.05" shape="2009.16,589.57 1986.58,615.43"/>
        <lane id="11107591049_11107591056_0_2" index="2" speed="13.89" length="36.05" shape="2006.75,587.47 1984.16,613.32"/>
        <lane id="11107591049_11107591056_0_3" index="3" speed="13.89" length="36.05" shape="2004.34,585.36 1981.75,611.22"/>
    </edge>
    <edge id="11107591052_11107591049_0" from="11107591052" to="11107591049" priority="-1">
        <lane id="11107591052_11107591049_0_0" index="0" speed="13.89" length="13.59" shape="2012.22,572.70 2014.11,582.10"/>
        <lane id="11107591052_11107591049_0_1" index="1" speed="13.89" length="13.59" shape="2009.08,573.33 2010.97,582.73"/>
        <lane id="11107591052_11107591049_0_2" index="2" speed="13.89" length="13.59" shape="2005.94,573.96 2007.84,583.36"/>
        <lane id="11107591052_11107591049_0_3" index="3" speed="13.89" length="13.59" shape="2002.81,574.60 2004.70,583.99"/>
    </edge>
    <edge id="11107591056_11107591057_0" from="11107591056" to="11107591057" priority="-1">
        <lane id="11107591056_11107591057_0_0" index="0" speed="13.89" length="6.20" shape="1977.77,613.13 1975.21,613.24"/>
    </edge>
    <edge id="11107591057_11107591062_0" from="11107591057" to="11107591062" priority="-1">
        <lane id="11107591057_11107591062_0_0" index="0" speed="13.89" length="50.32" shape="1970.90,610.61 1951.25,570.91"/>
    </edge>
    <edge id="11107591057_12534669559_0" from="11107591057" to="12534669559" priority="-1">
        <lane id="11107591057_12534669559_0_0" index="0" speed="13.89" length="17.02" shape="1969.16,614.64 1957.64,618.16"/>
    </edge>
    <edge id="11107591062_11975205288_0" from="11107591062" to="11975205288" priority="-1">
        <lane id="11107591062_11975205288_0_0" index="0" speed="13.89" length="21.38" shape="1953.40,563.11 1968.00,553.68"/>
    </edge>
    <edge id="11107591064_11107591052_0" from="11107591064" to="11107591052" priority="-1">
        <lane id="11107591064_11107591052_0_0" index="0" speed="13.89" length="29.65" shape="1984.17,546.65 1996.51,554.89"/>
        <lane id="11107591064_11107591052_0_1" index="1" speed="13.89" length="29.65" shape="1982.39,549.31 1994.73,557.55"/>
        <lane id="11107591064_11107591052_0_2" index="2" speed="13.89" length="29.65" shape="1980.61,551.97 1992.95,560.21"/>
        <lane id="11107591064_11107591052_0_3" index="3" speed="13.89" length="29.65" shape="1978.84,554.63 1991.18,562.87"/>
    </edge>
    <edge id="11107591064_13331226972_0" from="11107591064" to="13331226972" priority="-1">
        <lane id="11107591064_13331226972_0_0" index="0" speed="13.89" length="19.36" shape="1978.28,538.03 1980.85,534.65"/>
        <lane id="11107591064_13331226972_0_1" index="1" speed="13.89" length="19.36" shape="1980.83,539.97 1983.40,536.59"/>
        <lane id="11107591064_13331226972_0_2" index="2" speed="13.89" length="19.36" shape="1983.37,541.91 1985.94,538.53"/>
    </edge>
    <edge id="11196066314_12175234040_0" from="11196066314" to="12175234040" priority="-1">
        <lane id="11196066314_12175234040_0_0" index="0" speed="13.89" length="68.39" shape="1095.00,396.09 1159.53,373.90"/>
        <lane id="11196066314_12175234040_0_1" index="1" speed="13.89" length="68.39" shape="1096.04,399.12 1160.57,376.93"/>
    </edge>
    <edge id="11196066315_253487848_0" from="11196066315" to="253487848" priority="-1">
        <lane id="11196066315_253487848_0_0" index="0" speed="13.89" length="8.79" shape="1101.50,417.67 1093.44,420.28"/>
        <lane id="11196066315_253487848_0_1" index="1" speed="13.89" length="8.79" shape="1100.52,414.63 1092.45,417.23"/>
    </edge>
    <edge id="11196066316_253487857_0" from="11196066316" to="253487857" priority="-1">
        <lane id="11196066316_253487857_0_0" index="0" speed="13.89" length="10.99" shape="1075.93,402.56 1086.04,399.17"/>
        <lane id="11196066316_253487857_0_1" index="1" speed="13.89" length="10.99" shape="1076.94,405.59 1087.06,402.20"/>
    </edge>
    <edge id="11196066317_11196066320_0" from="11196066317" to="11196066320" priority="-1">
        <lane id="11196066317_11196066320_0_0" index="0" speed="13.89" length="100.19" shape="1082.86,423.89 987.88,455.01"/>
        <lane id="11196066317_11196066320_0_1" index="1" speed="13.89" length="100.19" shape="1081.86,420.85 986.88,451.97"/>
    </edge>
    <edge id="11196066319_11196066316_0" from="11196066319" to="11196066316" priority="-1">
        <lane id="11196066319_11196066316_0_0" index="0" speed="13.89" length="99.85" shape="981.10,433.69 1075.65,402.65"/>
        <lane id="11196066319_11196066316_0_1" index="1" speed="13.89" length="99.85" shape="982.10,436.73 1076.65,405.69"/>
    </edge>
    <edge id="11196066320_253487849_0" from="11196066320" to="253487849" priority="-1">
        <lane id="11196066320_253487849_0_0" index="0" speed="13.89" length="8.94" shape="987.58,455.11 979.34,457.68"/>
        <lane id="11196066320_253487849_0_1" index="1" speed="13.89" length="8.94" shape="986.63,452.05 978.38,454.63"/>
    </edge>
    <edge id="11196066323_253487856_0" from="11196066323" to="253487856" priority="-1">
        <lane id="11196066323_253487856_0_0" index="0" speed="13.89" length="116.03" shape="861.88,473.70 971.78,436.49"/>
        <lane id="11196066323_253487856_0_1" index="1" speed="13.89" length="116.03" shape="862.91,476.73 972.81,439.52"/>
    </edge>
    <edge id="11196066325_253487851_0" from="11196066325" to="253487851" priority="-1">
        <lane id="11196066325_253487851_0_0" index="0" speed="13.89" length="75.33" shape="780.38,501.83 851.10,477.89"/>
        <lane id="11196066325_253487851_0_1" index="1" speed="13.89" length="75.33" shape="781.40,504.86 852.13,480.92"/>
    </edge>
    <edge id="11196066326_131964489_0" from="11196066326" to="131964489" priority="-1">
        <lane id="11196066326_131964489_0_0" index="0" speed="13.89" length="13.11" shape="787.03,523.45 780.69,526.67"/>
        <lane id="11196066326_131964489_0_1" index="1" speed="13.89" length="13.11" shape="785.58,520.60 779.24,523.82"/>
    </edge>
    <edge id="11196066327_4592684588_0" from="11196066327" to="4592684588" priority="-1">
        <lane id="11196066327_4592684588_0_0" index="0" speed="13.89" length="13.31" shape="774.04,491.58 775.75,496.77"/>
        <lane id="11196066327_4592684588_0_1" index="1" speed="13.89" length="13.31" shape="771.00,492.58 772.71,497.77"/>
        <lane id="11196066327_4592684588_0_2" index="2" speed="13.89" length="13.31" shape="767.96,493.58 769.66,498.76"/>
        <lane id="11196066327_4592684588_0_3" index="3" speed="13.89" length="13.31" shape="764.92,494.57 766.62,499.76"/>
    </edge>
    <edge id="11222730017_11524524202_0" from="11222730017" to="11524524202" priority="-1">
        <lane id="11222730017_11524524202_0_0" index="0" speed="13.89" length="9.52" shape="1220.04,1044.83 1228.89,1041.74"/>
    </edge>
    <edge id="11222730023_253312472_0" from="11222730023" to="253312472" priority="-1">
        <lane id="11222730023_253312472_0_0" index="0" speed="13.89" length="14.95" shape="1180.91,1058.20 1185.16,1056.54"/>
    </edge>
    <edge id="11222730028_253312484_0" from="11222730028" to="253312484" priority="-1">
        <lane id="11222730028_253312484_0_0" index="0" speed="13.89" length="7.43" shape="1102.24,1085.11 1109.12,1082.69"/>
    </edge>
    <edge id="11222730036_253312480_0" from="11222730036" to="253312480" priority="-1">
        <lane id="11222730036_253312480_0_0" index="0" speed="13.89" length="12.66" shape="945.71,1127.33 947.39,1132.52"/>
    </edge>
    <edge id="11222811937_99503537_0" from="11222811937" to="99503537" priority="-1">
        <lane id="11222811937_99503537_0_0" index="0" speed="13.89" length="63.03" shape="920.90,1135.29 903.63,1075.51"/>
        <lane id="11222811937_99503537_0_1" index="1" speed="13.89" length="63.03" shape="923.97,1134.41 906.70,1074.62"/>
        <lane id="11222811937_99503537_0_2" index="2" speed="13.89" length="63.03" shape="927.05,1133.52 909.78,1073.74"/>
    </edge>
    <edge id="11465724478_250293054_0" from="11465724478" to="250293054" priority="-1">
        <lane id="11465724478_250293054_0_0" index="0" speed="13.89" length="24.46" shape="713.58,849.16 691.62,839.10"/>
        <lane id="11465724478_250293054_0_1" index="1" speed="13.89" length="24.46" shape="714.91,846.25 692.95,836.19"/>
    </edge>
    <edge id="11465724629_6443891871_0" from="11465724629" to="6443891871" priority="-1">
        <lane id="11465724629_6443891871_0_0" index="0" speed="13.89" length="67.45" shape="605.69,1041.56 669.07,1019.40"/>
        <lane id="11465724629_6443891871_0_1" index="1" speed="13.89" length="67.45" shape="606.74,1044.58 670.12,1022.42"/>
        <lane id="11465724629_6443891871_0_2" index="2" speed="13.89" length="67.45" shape="607.80,1047.60 671.18,1025.45"/>
    </edge>
    <edge id="11465724630_11465724668_0" from="11465724630" to="11465724668" priority="-1">
        <lane id="11465724630_11465724668_0_0" index="0" speed="13.89" length="4.48" shape="618.22,1072.29 614.48,1073.67"/>
        <lane id="11465724630_11465724668_0_1" index="1" speed="13.89" length="4.48" shape="617.12,1069.29 613.37,1070.67"/>
        <lane id="11465724630_11465724668_0_2" index="2" speed="13.89" length="4.48" shape="616.01,1066.29 612.26,1067.67"/>
    </edge>
    <edge id="11465724668_318325850_0" from="11465724668" to="318325850" priority="-1">
        <lane id="11465724668_318325850_0_0" index="0" speed="13.89" length="96.98" shape="614.39,1073.71 527.19,1111.42"/>
        <lane id="11465724668_318325850_0_1" index="1" speed="13.89" length="96.98" shape="613.12,1070.77 525.92,1108.48"/>
        <lane id="11465724668_318325850_0_2" index="2" speed="13.89" length="96.98" shape="611.85,1067.83 524.65,1105.54"/>
    </edge>
    <edge id="11465724670_11465724629_0" from="11465724670" to="11465724629" priority="-1">
        <lane id="11465724670_11465724629_0_0" index="0" speed="13.89" length="3.47" shape="602.60,1042.62 605.43,1041.65"/>
        <lane id="11465724670_11465724629_0_1" index="1" speed="13.89" length="3.47" shape="603.63,1045.65 606.46,1044.68"/>
        <lane id="11465724670_11465724629_0_2" index="2" speed="13.89" length="3.47" shape="604.66,1048.68 607.50,1047.71"/>
    </edge>
    <edge id="11466508681_251871550_0" from="11466508681" to="251871550" priority="-1">
        <lane id="11466508681_251871550_0_0" index="0" speed="13.89" length="32.25" shape="666.43,805.94 695.59,818.98"/>
        <lane id="11466508681_251871550_0_1" index="1" speed="13.89" length="32.25" shape="665.12,808.86 694.29,821.90"/>
    </edge>
    <edge id="11473103030_250293109_0" from="11473103030" to="250293109" priority="-1">
        <lane id="11473103030_250293109_0_0" index="0" speed="13.89" length="4.09" shape="895.57,908.94 897.37,911.29"/>
        <lane id="11473103030_250293109_0_1" index="1" speed="13.89" length="4.09" shape="893.03,910.89 894.83,913.24"/>
        <lane id="11473103030_250293109_0_2" index="2" speed="13.89" length="4.09" shape="890.49,912.83 892.29,915.18"/>
    </edge>
    <edge id="11473103031_2507404262_0" from="11473103031" to="2507404262" priority="-1">
        <lane id="11473103031_2507404262_0_0" index="0" speed="13.89" length="7.56" shape="862.20,923.53 862.17,923.33"/>
    </edge>
    <edge id="11476259719_7020445806_0" from="11476259719" to="7020445806" priority="-1">
        <lane id="11476259719_7020445806_0_0" index="0" speed="13.89" length="1.98" shape="875.64,859.98 876.06,861.46"/>
        <lane id="11476259719_7020445806_0_1" index="1" speed="13.89" length="1.98" shape="872.56,860.87 872.99,862.35"/>
        <lane id="11476259719_7020445806_0_2" index="2" speed="13.89" length="1.98" shape="869.49,861.76 869.92,863.24"/>
    </edge>
    <edge id="11510605161_11510605167_0" from="11510605161" to="11510605167" priority="-1">
        <lane id="11510605161_11510605167_0_0" index="0" speed="13.89" length="18.59" shape="1111.63,841.53 1129.18,835.39"/>
        <lane id="11510605161_11510605167_0_1" index="1" speed="13.89" length="18.59" shape="1112.68,844.55 1130.23,838.41"/>
        <lane id="11510605161_11510605167_0_2" index="2" speed="13.89" length="18.59" shape="1113.74,847.57 1131.29,841.43"/>
    </edge>
    <edge id="11510605167_11510635088_0" from="11510605167" to="11510635088" priority="-1">
        <lane id="11510605167_11510635088_0_0" index="0" speed="13.89" length="26.59" shape="1129.18,835.39 1154.28,826.61"/>
        <lane id="11510605167_11510635088_0_1" index="1" speed="13.89" length="26.59" shape="1130.24,838.41 1155.34,829.63"/>
        <lane id="11510605167_11510635088_0_2" index="2" speed="13.89" length="26.59" shape="1131.29,841.43 1156.39,832.65"/>
    </edge>
    <edge id="11510635088_6813248682_0" from="11510635088" to="6813248682" priority="-1">
        <lane id="11510635088_6813248682_0_0" index="0" speed="13.89" length="22.98" shape="1154.28,826.61 1175.82,819.07"/>
        <lane id="11510635088_6813248682_0_1" index="1" speed="13.89" length="22.98" shape="1155.33,829.63 1176.87,822.09"/>
        <lane id="11510635088_6813248682_0_2" index="2" speed="13.89" length="22.98" shape="1156.39,832.65 1177.93,825.11"/>
    </edge>
    <edge id="11512138129_249507197_0" from="11512138129" to="249507197" priority="-1">
        <lane id="11512138129_249507197_0_0" index="0" speed="13.89" length="3.51" shape="93.49,763.20 90.32,764.27"/>
        <lane id="11512138129_249507197_0_1" index="1" speed="13.89" length="3.51" shape="92.45,760.17 89.29,761.24"/>
        <lane id="11512138129_249507197_0_2" index="2" speed="13.89" length="3.51" shape="91.42,757.14 88.26,758.21"/>
    </edge>
    <edge id="11512138130_11514439285_0" from="11512138130" to="11514439285" priority="-1">
        <lane id="11512138130_11514439285_0_0" index="0" speed="13.89" length="47.47" shape="88.09,746.20 132.80,731.23"/>
    </edge>
    <edge id="11514389210_11512138129_0" from="11514389210" to="11512138129" priority="-1">
        <lane id="11514389210_11512138129_0_0" index="0" speed="13.89" length="47.47" shape="138.47,748.11 93.76,763.10"/>
        <lane id="11514389210_11512138129_0_1" index="1" speed="13.89" length="47.47" shape="137.46,745.08 92.74,760.07"/>
        <lane id="11514389210_11512138129_0_2" index="2" speed="13.89" length="47.47" shape="136.44,742.04 91.72,757.04"/>
    </edge>
    <edge id="11514439285_11516300343_0" from="11514439285" to="11516300343" priority="-1">
        <lane id="11514439285_11516300343_0_0" index="0" speed="13.89" length="20.84" shape="133.07,731.14 152.55,724.19"/>
    </edge>
    <edge id="11516300299_131943242_0" from="11516300299" to="131943242" priority="-1">
        <lane id="11516300299_131943242_0_0" index="0" speed="13.89" length="12.05" shape="330.31,690.11 330.13,690.03"/>
    </edge>
    <edge id="11516300300_10300860718_0" from="11516300300" to="10300860718" priority="-1">
        <lane id="11516300300_10300860718_0_0" index="0" speed="13.89" length="3.47" shape="313.96,643.34 317.26,642.95"/>
    </edge>
    <edge id="11516300343_249528546_0" from="11516300343" to="249528546" priority="-1">
        <lane id="11516300343_249528546_0_0" index="0" speed="13.89" length="36.21" shape="152.55,724.19 186.53,712.09"/>
    </edge>
    <edge id="11516300344_249507259_0" from="11516300344" to="249507259" priority="-1">
        <lane id="11516300344_249507259_0_0" index="0" speed="13.89" length="6.09" shape="157.22,738.39 155.38,739.02"/>
        <lane id="11516300344_249507259_0_1" index="1" speed="13.89" length="6.09" shape="156.18,735.36 154.34,735.99"/>
    </edge>
    <edge id="11524524177_11524524192_0" from="11524524177" to="11524524192" priority="-1">
        <lane id="11524524177_11524524192_0_0" index="0" speed="13.89" length="31.91" shape="1134.84,1073.92 1164.90,1063.65"/>
    </edge>
    <edge id="11524524192_11222730023_0" from="11524524192" to="11222730023" priority="-1">
        <lane id="11524524192_11222730023_0_0" index="0" speed="13.89" length="16.70" shape="1165.19,1063.56 1180.73,1058.27"/>
    </edge>
    <edge id="11524524202_253312485_0" from="11524524202" to="253312485" priority="-1">
        <lane id="11524524202_253312485_0_0" index="0" speed="13.89" length="35.94" shape="1228.89,1041.74 1262.68,1029.94"/>
    </edge>
    <edge id="11524524339_1617220209_0" from="11524524339" to="1617220209" priority="-1">