<?xml version="1.0" encoding="UTF-8"?>

<!-- generated on 2026-04-28 10:44:59.835663 by Eclipse SUMO randomTrips.py v0.0.0
<configuration>
    <net-file value="grid.net.xml"/>
    <output-trip-file value="grid.rou.xml"/>
    <end value="200.0"/>
    <period value="1.5"/>
</configuration>
-->

<routes xmlns:xsi="http://www.w3.org/2001/XMLSchema-instance" xsi:noNamespaceSchemaLocation="http://sumo.dlr.de/xsd/routes_file.xsd">
    <trip id="0" depart="0.00" from="B2B1" to="A0A1"/>
    <trip id="1" depart="1.50" from="A2B2" to="A2A1"/>
    <trip id="2" depart="3.00" from="C0B0" to="B2C2"/>
    <trip id="3" depart="4.50" from="C1C2" to="A1A0"/>
    <trip id="4" depart="6.00" from="B1A1" to="A0A1"/>
    <trip id="5" depart="7.50" from="A2A1" to="B1B2"/>
    <trip id="6" depart="9.00" from="A0A1" to="A1B1"/>
    <trip id="7" depart="10.50" from="B2B1" to="B1C1"/>
    <trip id="8" depart="12.00" from="A2A1" to="B2A2"/>
    <trip id="9" depart="13.50" from="C1B1" to="A0A1"/>
    <trip id="10" depart="15.00" from="C1B1" to="B2C2"/>
    <trip id="11" depart="16.50" from="B0B1" to="A1A2"/>
    <trip id="12" depart="18.00" from="C2B2" to="B0B1"/>
    <trip id="13" depart="19.50" from="A1A0" to="A1A0"/>
    <trip id="14" depart="21.00" from="C1C0" to="B2A2"/>
    <trip id="15" depart="22.50" from="C1B1" to="C0B0"/>
    <trip id="16" depart="24.00" from="B1B2" to="C2C1"/>
    <trip id="17" depart="25.50" from="B0C0" to="B1C1"/>
    <trip id="18" depart="27.00" from="C1B1" to="B2A2"/>
    <trip id="19" depart="28.50" from="C1C0" to="B1C1"/>
    <trip id="20" depart="30.00" from="B2C2" to="A0B0"/>
    <trip id="21" depart="31.50" from="A2A1" to="A2B2"/>
    <trip id="22" depart="33.00" from="A0B0" to="A2A1"/>
    <trip id="23" depart="34.50" from="A1A0" to="A2B2"/>
    <trip id="24" depart="36.00" from="B2B1" to="B0B1"/>
    <trip id="25" depart="37.50" from="B0B1" to="A2A1"/>
    <trip id="26" depart="39.00" from="A2B2" to="C2B2"/>
    <trip id="27" depart="40.50" from="B2B1" to="B2A2"/>
    <trip id="28" depart="42.00" from="A1B1" to="C0B0"/>
    <trip id="29" depart="43.50" from="A1A2" to="B0C0"/>
    <trip id="30" depart="45.00" from="C2C1" to="B2B1"/>
    <trip id="31" depart="46.50" from="B1C1" to="B2C2"/>
    <trip id="32" depart="48.00" from="C1C0" to="C0C1"/>
    <trip id="33" depart="49.50" from="A2A1" to="A0A1"/>
    <trip id="34" depart="51.00" from="B0A0" to="A2B2"/>
    <trip id="35" depart="52.50" from="A2A1" to="C2B2"/>
    <trip id="36" depart="54.00" from="C1C2" to="B0A0"/>
    <trip id="37" depart="55.50" from="B2B1" to="B0C0"/>
    <trip id="38" depart="57.00" from="C1C2" to="B1B0"/>
    <trip id="39" depart="58.50" from="A2B2" to="A2A1"/>
    <trip id="40" depart="60.00" from="B1C1" to="A2B2"/>
    <trip id="41" depart="61.50" from="B2A2" to="C1C2"/>
    <trip id="42" depart="63.00" from="B0C0" to="A2A1"/>
    <trip id="43" depart="64.50" from="C2C1" to="B1B2"/>
    <trip id="44" depart="66.00" from="A1A0" to="A0B0"/>
    <trip id="45" depart="67.50" from="A1A0" to="B2B1"/>
    <trip id="46" depart="69.00" from="C1B1" to="B1A1"/>
    <trip id="47" depart="70.50" from="A0B0" to="B0C0"/>
    <trip id="48" depart="72.00" from="C2C1" to="B1B2"/>
    <trip id="49" depart="73.50" from="C2C1" to="C1C0"/>
    <trip id="50" depart="75.00" from="A0A1" to="C0B0"/>
    <trip id="51" depart="76.50" from="B2C2" to="B1B2"/>
    <trip id="52" depart="78.00" from="A2B2" to="B2B1"/>
    <trip id="53" depart="79.50" from="A1A0" to="B1A1"/>
    <trip id="54" depart="81.00" from="B1A1" to="C2B2"/>
    <trip id="55" depart="82.50" from="C1C2" to="A2B2"/>
    <trip id="56" depart="84.00" from="B1B2" to="A1B1"/>
    <trip id="57" depart="85.50" from="C1C2" to="C1C0"/>
    <trip id="58" depart="87.00" from="B0A0" to="B2B1"/>
    <trip id="59" depart="88.50" from="B2A2" to="A1A2"/>
    <trip id="60" depart="90.00" from="C0C1" to="B1B2"/>
    <trip id="61" depart="91.50" from="C0C1" to="B1B2"/>
    <trip id="62" depart="93.00" from="A0A1" to="B0A0"/>
    <trip id="63" depart="94.50" from="A0A1" to="C2B2"/>
    <trip id="64" depart="96.00" from="C1C2" to="C1B1"/>
    <trip id="65" depart="97.50" from="B0A0" to="A0B0"/>
    <trip id="66" depart="99.00" from="C1C2" to="C2B2"/>
    <trip id="67" depart="100.50" from="A1A0" to="B1B0"/>
    <trip id="68" depart="102.00" from="A0B0" to="C0C1"/>
    <trip id="69" depart="103.50" from="C0C1" to="A1A2"/>
    <trip id="70" depart="105.00" from="B1B0" to="B1C1"/>
    <trip id="71" depart="106.50" from="A2B2" to="C1C0"/>
    <trip id="72" depart="108.00" from="B1A1" to="A2A1"/>
    <trip id="73" depart="109.50" from="B1B2" to="C0B0"/>
    <trip id="74" depart="111.00" from="A1B1" to="B0A0"/>
    <trip id="75" depart="112.50" from="C2C1" to="B2B1"/>
    <trip id="76" depart="114.00" from="B1A1" to="B1B2"/>
    <trip id="77" depart="115.50" from="A1A0" to="A2A1"/>
    <trip id="78" depart="117.00" from="B0B1" to="B2A2"/>
    <trip id="79" depart="118.50" from="A2A1" to="A2A1"/>
    <trip id="80" depart="120.00" from="A0B0" to="B2B1"/>
    <trip id="81" depart="121.50" from="A2A1" to="C1C2"/>
    <trip id="82" depart="123.00" from="C1C0" to="A0B0"/>
    <trip id="83" depart="124.50" from="A2A1" to="B2C2"/>
    <trip id="84" depart="126.00" from="A2A1" to="A1A2"/>
    <trip id="85" depart="127.50" from="C2B2" to="B1C1"/>
    <trip id="86" depart="129.00" from="B1B0" to="C0C1"/>
    <trip id="87" depart="130.50" from="C1B1" to="A1B1"/>
    <trip id="88" depart="132.00" from="A1A0" to="B1A1"/>
    <trip id="89" depart="133.50" from="B1A1" to="B1B0"/>
    <trip id="90" depart="135.00" from="C0B0" to="B2C2"/>
    <trip id="91" depart="136.50" from="C2C1" to="A1A0"/>
    <trip id="92" depart="138.00" from="B0C0" to="B0B1"/>
    <trip id="93" depart="139.50" from="C1C0" to="A2A1"/>
    <trip id="94" depart="141.00" from="A1B1" to="B1A1"/>
    <trip id="95" depart="142.50" from="B1A1" to="A2B2"/>
    <trip id="96" depart="144.00" from="A2A1" to="C2B2"/>
    <trip id="97" depart="145.50" from="B1A1" to="C1C0"/>
    <trip id="98" depart="147.00" from="B1C1" to="A0B0"/>
    <trip id="99" depart="148.50" from="C2C1" to="C1C0"/>
    <trip id="100" depart="150.00" from="C2C1" to="C2B2"/>
    <trip id="101" depart="151.50" from="C1C0" to="A1A2"/>
    <trip id="102" depart="153.00" from="B1B0" to="A2A1"/>
    <trip id="103" depart="154.50" from="B0C0" to="A0B0"/>
    <trip id="104" depart="156.00" from="B0C0" to="C2C1"/>
    <trip id="105" depart="157.50" from="A2B2" to="C0C1"/>
    <trip id="106" depart="159.00" from="B1A1" to="B1A1"/>
    <trip id="107" depart="160.50" from="C2B2" to="C2C1"/>
    <trip id="108" depart="162.00" from="B1C1" to="C0B0"/>
    <trip id="109" depart="163.50" from="A1A2" to="B0A0"/>
    <trip id="110" depart="165.00" from="C2C1" to="B1C1"/>
    <trip id="111" depart="166.50" from="B1C1" to="C0B0"/>
    <trip id="112" depart="168.00" from="A0B0" to="B2A2"/>
    <trip id="113" depart="169.50" from="B1B2" to="C1C0"/>
    <trip id="114" depart="171.00" from="A1A2" to="C2C1"/>
    <trip id="115" depart="172.50" from="A0B0" to="A1B1"/>
    <trip id="116" depart="174.00" from="B2A2" to="B2C2"/>
    <trip id="117" depart="175.50" from="A2A1" to="A1A0"/>
    <trip id="118" depart="177.00" from="C1C2" to="A2A1"/>
    <trip id="119" depart="178.50" from="B2A2" to="B2A2"/>
    <trip id="120" depart="180.00" from="B1A1" to="B2A2"/>
    <trip id="121" depart="181.50" from="B1B2" to="C2B2"/>
    <trip id="122" depart="183.00" from="A1B1" to="C0B0"/>
    <trip id="123" depart="184.50" from="A2A1" to="B0C0"/>
    <trip id="124" depart="186.00" from="B2C2" to="B0A0"/>
    <trip id="125" depart="187.50" from="B0A0" to="C0C1"/>
    <trip id="126" depart="189.00" from="A0B0" to="B1A1"/>
    <trip id="127" depart="190.50" from="C2C1" to="C2C1"/>
    <trip id="128" depart="192.00" from="A0B0" to="A2A1"/>
    <trip id="129" depart="193.50" from="A2B2" to="C2B2"/>
    <trip id="130" depart="195.00" from="C1C2" to="C1C2"/>
    <trip id="131" depart="196.50" from="B0B1" to="A1A2"/>
    <trip id="132" depart="198.00" from="C1C0" to="B2C2"/>
    <trip id="133" depart="199.50" from="B2A2" to="C2C1"/>
</routes>
