<configuration>
    <input>
        <net-file value="grid.net.xml"/>
        <route-files value="grid.rou.xml"/>
    </input>
    <time>
        <begin value="0"/>
        <end value="1000"/>
    </time>
    <report>
        <no-step-log value="true"/>
        <no-warnings value="true"/>
    </report>
</configuration>
