<net version="1.16" junctionCornerDetail="5" limitTurnSpeed="5.50" xmlns:xsi="http://www.w3.org/2001/XMLSchema-instance" xsi:noNamespaceSchemaLocation="http://sumo.dlr.de/xsd/net_file.xsd">
    <location netOffset="0.00,0.00" convBoundary="0.00,0.00,1000.00,0.00" origBoundary="0.00,0.00,1000.00,0.00" projParameter="!"/>
    <edge id="e1" from="j1" to="j2" priority="-1">
        <lane id="e1_0" index="0" speed="13.89" length="1000.00" shape="0.00,-4.80 1000.00,-4.80"/>
        <lane id="e1_1" index="1" speed="13.89" length="1000.00" shape="0.00,-1.60 1000.00,-1.60"/>
    </edge>
    <junction id="j1" type="dead_end" x="0.00" y="0.00" incLanes="" intLanes="" shape="0.00,0.00 0.00,-6.40"/>
    <junction id="j2" type="dead_end" x="1000.00" y="0.00" incLanes="e1_0 e1_1" intLanes="" shape="1000.00,-6.40 1000.00,0.00"/>
</net>
