<routes xmlns:xsi="http://www.w3.org/2001/XMLSchema-instance" xsi:noNamespaceSchemaLocation="http://sumo.dlr.de/xsd/routes_file.xsd">
    <vType id="type1" accel="0.8" decel="4.5" sigma="0.5" length="5" minGap="2.5" maxSpeed="16.67" guiShape="passenger"/>
    <route id="route1" edges="e1"/>
    <!-- Generamos un flujo constante de vehículos para que siempre haya tráfico -->
    <flow id="flow1" type="type1" route="route1" begin="0" end="1000" period="3"/>
</routes>
