<nodes>
    <node id="center" x="100" y="100" type="traffic_light"/>
    <node id="w" x="0" y="100"/>
    <node id="e" x="200" y="100"/>
    <node id="sw" x="30" y="30"/>
    <node id="ne" x="170" y="170"/>
</nodes>
