<edges><edge id="E_n_0_0_n_1_0" from="n_0_0" to="n_1_0" numLanes="1" speed="8.33" priority="1" /><edge id="E_n_1_0_n_2_0" from="n_1_0" to="n_2_0" numLanes="1" speed="8.33" priority="1" /><edge id="E_n_2_0_n_3_0" from="n_2_0" to="n_3_0" numLanes="1" speed="8.33" priority="1" /><edge id="E_n_3_0_n_4_0" from="n_3_0" to="n_4_0" numLanes="1" speed="8.33" priority="1" /><edge id="E_n_1_1_n_0_1" from="n_1_1" to="n_0_1" numLanes="1" speed="8.33" priority="1" /><edge id="E_n_2_1_n_1_1" from="n_2_1" to="n_1_1" numLanes="1" speed="8.33" priority="1" /><edge id="E_n_3_1_n_2_1" from="n_3_1" to="n_2_1" numLanes="1" speed="8.33" priority="1" /><edge id="E_n_4_1_n_3_1" from="n_4_1" to="n_3_1" numLanes="1" speed="8.33" priority="1" /><edge id="E_n_0_2_n_1_2" from="n_0_2" to="n_1_2" numLanes="1" speed="13.89" priority="2" /><edge id="E_n_1_2_n_0_2" from="n_1_2" to="n_0_2" numLanes="1" speed="13.89" priority="2" /><edge id="E_n_1_2_n_2_2" from="n_1_2" to="n_2_2" numLanes="1" speed="13.89" priority="2" /><edge id="E_n_2_2_n_1_2" from="n_2_2" to="n_1_2" numLanes="1" speed="13.89" priority="2" /><edge id="E_n_2_2_n_3_2" from="n_2_2" to="n_3_2" numLanes="1" speed="13.89" priority="2" /><edge id="E_n_3_2_n_2_2" from="n_3_2" to="n_2_2" numLanes="1" speed="13.89" priority="2" /><edge id="E_n_3_2_n_4_2" from="n_3_2" to="n_4_2" numLanes="1" speed="13.89" priority="2" /><edge id="E_n_4_2_n_3_2" from="n_4_2" to="n_3_2" numLanes="1" speed="13.89" priority="2" /><edge id="E_n_0_3_n_1_3" from="n_0_3" to="n_1_3" numLanes="1" speed="13.89" priority="2" /><edge id="E_n_1_3_n_0_3" from="n_1_3" to="n_0_3" numLanes="1" speed="13.89" priority="2" /><edge id="E_n_1_3_n_2_3" from="n_1_3" to="n_2_3" numLanes="1" speed="13.89" priority="2" /><edge id="E_n_2_3_n_1_3" from="n_2_3" to="n_1_3" numLanes="1" speed="13.89" priority="2" /><edge id="E_n_2_3_n_3_3" from="n_2_3" to="n_3_3" numLanes="1" speed="13.89" priority="2" /><edge id="E_n_3_3_n_2_3" from="n_3_3" to="n_2_3" numLanes="1" speed="13.89" priority="2" /><edge id="E_n_3_3_n_4_3" from="n_3_3" to="n_4_3" numLanes="1" speed="13.89" priority="2" /><edge id="E_n_4_3_n_3_3" from="n_4_3" to="n_3_3" numLanes="1" speed="13.89" priority="2" /><edge id="E_n_0_4_n_1_4" from="n_0_4" to="n_1_4" numLanes="1" speed="8.33" priority="1" /><edge id="E_n_1_4_n_2_4" from="n_1_4" to="n_2_4" numLanes="1" speed="8.33" priority="1" /><edge id="E_n_2_4_n_3_4" from="n_2_4" to="n_3_4" numLanes="1" speed="8.33" priority="1" /><edge id="E_n_3_4_n_4_4" from="n_3_4" to="n_4_4" numLanes="1" speed="8.33" priority="1" /><edge id="E_n_0_0_n_0_1" from="n_0_0" to="n_0_1" numLanes="1" speed="8.33" priority="1" /><edge id="E_n_0_1_n_0_2" from="n_0_1" to="n_0_2" numLanes="1" speed="8.33" priority="1" /><edge id="E_n_0_2_n_0_3" from="n_0_2" to="n_0_3" numLanes="1" speed="8.33" priority="1" /><edge id="E_n_0_3_n_0_4" from="n_0_3" to="n_0_4" numLanes="1" speed="8.33" priority="1" /><edge id="E_n_1_1_n_1_0" from="n_1_1" to="n_1_0" numLanes="1" speed="8.33" priority="1" /><edge id="E_n_1_2_n_1_1" from="n_1_2" to="n_1_1" numLanes="1" speed="8.33" priority="1" /><edge id="E_n_1_3_n_1_2" from="n_1_3" to="n_1_2" numLanes="1" speed="8.33" priority="1" /><edge id="E_n_1_4_n_1_3" from="n_1_4" to="n_1_3" numLanes="1" speed="8.33" priority="1" /><edge id="E_n_2_0_n_2_1" from="n_2_0" to="n_2_1" numLanes="1" speed="13.89" priority="2" /><edge id="E_n_2_1_n_2_0" from="n_2_1" to="n_2_0" numLanes="1" speed="13.89" priority="2" /><edge id="E_n_2_1_n_2_2" from="n_2_1" to="n_2_2" numLanes="1" speed="13.89" priority="2" /><edge id="E_n_2_2_n_2_1" from="n_2_2" to="n_2_1" numLanes="1" speed="13.89" priority="2" /><edge id="E_n_2_2_n_2_3" from="n_2_2" to="n_2_3" numLanes="1" speed="13.89" priority="2" /><edge id="E_n_2_3_n_2_2" from="n_2_3" to="n_2_2" numLanes="1" speed="13.89" priority="2" /><edge id="E_n_2_3_n_2_4" from="n_2_3" to="n_2_4" numLanes="1" speed="13.89" priority="2" /><edge id="E_n_2_4_n_2_3" from="n_2_4" to="n_2_3" numLanes="1" speed="13.89" priority="2" /><edge id="E_n_3_1_n_3_0" from="n_3_1" to="n_3_0" numLanes="1" speed="8.33" priority="1" /><edge id="E_n_3_2_n_3_1" from="n_3_2" to="n_3_1" numLanes="1" speed="8.33" priority="1" /><edge id="E_n_3_3_n_3_2" from="n_3_3" to="n_3_2" numLanes="1" speed="8.33" priority="1" /><edge id="E_n_3_4_n_3_3" from="n_3_4" to="n_3_3" numLanes="1" speed="8.33" priority="1" /><edge id="E_n_4_0_n_4_1" from="n_4_0" to="n_4_1" numLanes="1" speed="13.89" priority="2" /><edge id="E_n_4_1_n_4_0" from="n_4_1" to="n_4_0" numLanes="1" speed="13.89" priority="2" /><edge id="E_n_4_1_n_4_2" from="n_4_1" to="n_4_2" numLanes="1" speed="13.89" priority="2" /><edge id="E_n_4_2_n_4_1" from="n_4_2" to="n_4_1" numLanes="1" speed="13.89" priority="2" /><edge id="E_n_4_2_n_4_3" from="n_4_2" to="n_4_3" numLanes="1" speed="13.89" priority="2" /><edge id="E_n_4_3_n_4_2" from="n_4_3" to="n_4_2" numLanes="1" speed="13.89" priority="2" /><edge id="E_n_4_3_n_4_4" from="n_4_3" to="n_4_4" numLanes="1" speed="13.89" priority="2" /><edge id="E_n_4_4_n_4_3" from="n_4_4" to="n_4_3" numLanes="1" speed="13.89" priority="2" /></edges>