<?xml version="1.0" encoding="UTF-8"?>

<!-- generated on 2026-04-30T18:25:13.675265+01:00 by Eclipse SUMO netconvert 1.26.0
<netconvertConfiguration xmlns:xsi="http://www.w3.org/2001/XMLSchema-instance" xsi:noNamespaceSchemaLocation="http://sumo.dlr.de/xsd/netconvertConfiguration.xsd">

    <input>
        <node-files value="scenarios/autonomous/auto.nod.xml"/>
        <edge-files value="scenarios/autonomous/auto.edg.xml"/>
    </input>

    <output>
        <output-file value="scenarios/autonomous/autonomous.net.xml"/>
    </output>

    <junctions>
        <no-turnarounds value="true"/>
    </junctions>

</netconvertConfiguration>
-->

<net version="1.20" junctionCornerDetail="5" limitTurnSpeed="5.50" xmlns:xsi="http://www.w3.org/2001/XMLSchema-instance" xsi:noNamespaceSchemaLocation="http://sumo.dlr.de/xsd/net_file.xsd">

    <location netOffset="0.00,0.00" convBoundary="0.00,0.00,600.00,600.00" origBoundary="0.00,0.00,600.00,600.00" projParameter="!"/>

    <edge id=":n_0_0_0" function="internal">
        <lane id=":n_0_0_0_0" index="0" speed="6.51" length="9.03" shape="7.20,1.60 4.75,1.95 3.00,3.00 1.95,4.75 1.60,7.20"/>
    </edge>
    <edge id=":n_0_1_0" function="internal">
        <lane id=":n_0_1_0_0" index="0" speed="6.51" length="9.03" shape="7.20,151.60 4.75,151.95 3.00,153.00 1.95,154.75 1.60,157.20"/>
    </edge>
    <edge id=":n_0_1_1" function="internal">
        <lane id=":n_0_1_1_0" index="0" speed="8.33" length="11.20" shape="1.60,146.00 1.60,157.20"/>
    </edge>
    <edge id=":n_0_2_0" function="internal">
        <lane id=":n_0_2_0_0" index="0" speed="6.51" length="9.03" shape="1.60,292.80 1.95,295.25 3.00,297.00 4.75,298.05 7.20,298.40"/>
    </edge>
    <edge id=":n_0_2_1" function="internal">
        <lane id=":n_0_2_1_0" index="0" speed="8.33" length="11.20" shape="1.60,292.80 1.60,304.00"/>
    </edge>
    <edge id=":n_0_3_0" function="internal">
        <lane id=":n_0_3_0_0" index="0" speed="6.51" length="9.03" shape="7.20,451.60 4.75,451.95 3.00,453.00 1.95,454.75 1.60,457.20"/>
    </edge>
    <edge id=":n_0_3_1" function="internal">
        <lane id=":n_0_3_1_0" index="0" speed="6.51" length="9.03" shape="1.60,442.80 1.95,445.25 3.00,447.00 4.75,448.05 7.20,448.40"/>
    </edge>
    <edge id=":n_0_3_2" function="internal">
        <lane id=":n_0_3_2_0" index="0" speed="8.33" length="14.40" shape="1.60,442.80 1.60,457.20"/>
    </edge>
    <edge id=":n_0_4_0" function="internal">
        <lane id=":n_0_4_0_0" index="0" speed="3.90" length="2.58" shape="1.60,596.80 1.70,597.50 2.00,598.00 2.50,598.30 3.20,598.40"/>
    </edge>
    <edge id=":n_1_0_0" function="internal">
        <lane id=":n_1_0_0_0" index="0" speed="6.51" length="9.03" shape="148.40,7.20 148.05,4.75 147.00,3.00 145.25,1.95 142.80,1.60"/>
    </edge>
    <edge id=":n_1_0_1" function="internal">
        <lane id=":n_1_0_1_0" index="0" speed="8.00" length="14.19" shape="148.40,7.20 148.95,3.35 150.60,0.60 153.35,-1.05 157.20,-1.60"/>
    </edge>
    <edge id=":n_1_0_2" function="internal">
        <lane id=":n_1_0_2_0" index="0" speed="6.51" length="9.03" shape="157.20,1.60 154.75,1.95 153.00,3.00 151.95,4.75 151.60,7.20"/>
    </edge>
    <edge id=":n_1_0_3" function="internal">
        <lane id=":n_1_0_3_0" index="0" speed="13.89" length="14.40" shape="157.20,1.60 142.80,1.60"/>
    </edge>
    <edge id=":n_1_0_4" function="internal">
        <lane id=":n_1_0_4_0" index="0" speed="13.89" length="14.40" shape="142.80,-1.60 157.20,-1.60"/>
    </edge>
    <edge id=":n_1_0_5" function="internal">
        <lane id=":n_1_0_5_0" index="0" speed="8.00" length="4.07" shape="142.80,-1.60 146.65,-1.05 146.80,-0.96"/>
    </edge>
    <edge id=":n_1_0_6" function="internal">
        <lane id=":n_1_0_6_0" index="0" speed="8.00" length="10.13" shape="146.80,-0.96 149.40,0.60 151.05,3.35 151.60,7.20"/>
    </edge>
    <edge id=":n_1_1_0" function="internal">
        <lane id=":n_1_1_0_0" index="0" speed="6.51" length="9.03" shape="148.40,157.20 148.05,154.75 147.00,153.00 145.25,151.95 142.80,151.60"/>
    </edge>
    <edge id=":n_1_1_1" function="internal">
        <lane id=":n_1_1_1_0" index="0" speed="13.89" length="11.20" shape="148.40,157.20 148.40,146.00"/>
    </edge>
    <edge id=":n_1_1_2" function="internal">
        <lane id=":n_1_1_2_0" index="0" speed="6.51" length="9.03" shape="157.20,151.60 154.75,151.95 153.00,153.00 151.95,154.75 151.60,157.20"/>
    </edge>
    <edge id=":n_1_1_3" function="internal">
        <lane id=":n_1_1_3_0" index="0" speed="8.33" length="14.40" shape="157.20,151.60 142.80,151.60"/>
    </edge>
    <edge id=":n_1_1_4" function="internal">
        <lane id=":n_1_1_4_0" index="0" speed="7.33" length="11.73" shape="157.20,151.60 153.35,151.25 150.60,150.20 148.95,148.45 148.40,146.00"/>
    </edge>
    <edge id=":n_1_1_5" function="internal">
        <lane id=":n_1_1_5_0" index="0" speed="13.89" length="11.20" shape="151.60,146.00 151.60,157.20"/>
    </edge>
    <edge id=":n_1_1_6" function="internal">
        <lane id=":n_1_1_6_0" index="0" speed="7.33" length="2.51" shape="151.60,146.00 151.05,148.45"/>
    </edge>
    <edge id=":n_1_1_7" function="internal">
        <lane id=":n_1_1_7_0" index="0" speed="7.33" length="9.21" shape="151.05,148.45 149.40,150.20 146.65,151.25 142.80,151.60"/>
    </edge>
    <edge id=":n_1_2_0" function="internal">
        <lane id=":n_1_2_0_0" index="0" speed="13.89" length="11.20" shape="148.40,304.00 148.40,292.80"/>
    </edge>
    <edge id=":n_1_2_1" function="internal">
        <lane id=":n_1_2_1_0" index="0" speed="7.33" length="2.51" shape="148.40,304.00 148.95,301.55"/>
    </edge>
    <edge id=":n_1_2_7" function="internal">
        <lane id=":n_1_2_7_0" index="0" speed="7.33" length="9.21" shape="148.95,301.55 150.60,299.80 153.35,298.75 157.20,298.40"/>
    </edge>
    <edge id=":n_1_2_2" function="internal">
        <lane id=":n_1_2_2_0" index="0" speed="6.51" length="9.03" shape="151.60,292.80 151.95,295.25 153.00,297.00 154.75,298.05 157.20,298.40"/>
    </edge>
    <edge id=":n_1_2_3" function="internal">
        <lane id=":n_1_2_3_0" index="0" speed="13.89" length="11.20" shape="151.60,292.80 151.60,304.00"/>
    </edge>
    <edge id=":n_1_2_4" function="internal">
        <lane id=":n_1_2_4_0" index="0" speed="6.51" length="9.03" shape="142.80,298.40 145.25,298.05 147.00,297.00 148.05,295.25 148.40,292.80"/>
    </edge>
    <edge id=":n_1_2_5" function="internal">
        <lane id=":n_1_2_5_0" index="0" speed="8.33" length="14.40" shape="142.80,298.40 157.20,298.40"/>
    </edge>
    <edge id=":n_1_2_6" function="internal">
        <lane id=":n_1_2_6_0" index="0" speed="7.33" length="11.73" shape="142.80,298.40 146.65,298.75 149.40,299.80 151.05,301.55 151.60,304.00"/>
    </edge>
    <edge id=":n_1_3_0" function="internal">
        <lane id=":n_1_3_0_0" index="0" speed="6.51" length="9.03" shape="148.40,457.20 148.05,454.75 147.00,453.00 145.25,451.95 142.80,451.60"/>
    </edge>
    <edge id=":n_1_3_1" function="internal">
        <lane id=":n_1_3_1_0" index="0" speed="13.89" length="14.40" shape="148.40,457.20 148.40,442.80"/>
    </edge>
    <edge id=":n_1_3_2" function="internal">
        <lane id=":n_1_3_2_0" index="0" speed="8.00" length="4.07" shape="148.40,457.20 148.95,453.35 149.04,453.20"/>
    </edge>
    <edge id=":n_1_3_12" function="internal">
        <lane id=":n_1_3_12_0" index="0" speed="8.00" length="10.13" shape="149.04,453.20 150.60,450.60 153.35,448.95 157.20,448.40"/>
    </edge>
    <edge id=":n_1_3_3" function="internal">
        <lane id=":n_1_3_3_0" index="0" speed="6.51" length="9.03" shape="157.20,451.60 154.75,451.95 153.00,453.00 151.95,454.75 151.60,457.20"/>
    </edge>
    <edge id=":n_1_3_4" function="internal">
        <lane id=":n_1_3_4_0" index="0" speed="13.89" length="14.40" shape="157.20,451.60 142.80,451.60"/>
    </edge>
    <edge id=":n_1_3_5" function="internal">
        <lane id=":n_1_3_5_0" index="0" speed="8.00" length="14.19" shape="157.20,451.60 153.35,451.05 150.60,449.40 148.95,446.65 148.40,442.80"/>
    </edge>
    <edge id=":n_1_3_6" function="internal">
        <lane id=":n_1_3_6_0" index="0" speed="6.51" length="9.03" shape="151.60,442.80 151.95,445.25 153.00,447.00 154.75,448.05 157.20,448.40"/>
    </edge>
    <edge id=":n_1_3_7" function="internal">
        <lane id=":n_1_3_7_0" index="0" speed="13.89" length="14.40" shape="151.60,442.80 151.60,457.20"/>
    </edge>
    <edge id=":n_1_3_8" function="internal">
        <lane id=":n_1_3_8_0" index="0" speed="8.00" length="4.07" shape="151.60,442.80 151.05,446.65 150.96,446.80"/>
    </edge>
    <edge id=":n_1_3_13" function="internal">
        <lane id=":n_1_3_13_0" index="0" speed="8.00" length="10.13" shape="150.96,446.80 149.40,449.40 146.65,451.05 142.80,451.60"/>
    </edge>
    <edge id=":n_1_3_9" function="internal">
        <lane id=":n_1_3_9_0" index="0" speed="6.51" length="9.03" shape="142.80,448.40 145.25,448.05 147.00,447.00 148.05,445.25 148.40,442.80"/>
    </edge>
    <edge id=":n_1_3_10" function="internal">
        <lane id=":n_1_3_10_0" index="0" speed="13.89" length="14.40" shape="142.80,448.40 157.20,448.40"/>
    </edge>
    <edge id=":n_1_3_11" function="internal">
        <lane id=":n_1_3_11_0" index="0" speed="8.00" length="14.19" shape="142.80,448.40 146.65,448.95 149.40,450.60 151.05,453.35 151.60,457.20"/>
    </edge>
    <edge id=":n_1_4_0" function="internal">
        <lane id=":n_1_4_0_0" index="0" speed="6.51" length="9.03" shape="151.60,592.80 151.95,595.25 153.00,597.00 154.75,598.05 157.20,598.40"/>
    </edge>
    <edge id=":n_1_4_1" function="internal">
        <lane id=":n_1_4_1_0" index="0" speed="6.51" length="9.03" shape="142.80,598.40 145.25,598.05 147.00,597.00 148.05,595.25 148.40,592.80"/>
    </edge>
    <edge id=":n_1_4_2" function="internal">
        <lane id=":n_1_4_2_0" index="0" speed="8.33" length="14.40" shape="142.80,598.40 157.20,598.40"/>
    </edge>
    <edge id=":n_2_0_0" function="internal">
        <lane id=":n_2_0_0_0" index="0" speed="6.51" length="9.03" shape="307.20,1.60 304.75,1.95 303.00,3.00 301.95,4.75 301.60,7.20"/>
    </edge>
    <edge id=":n_2_0_1" function="internal">
        <lane id=":n_2_0_1_0" index="0" speed="13.89" length="11.20" shape="307.20,1.60 296.00,1.60"/>
    </edge>
    <edge id=":n_2_0_2" function="internal">
        <lane id=":n_2_0_2_0" index="0" speed="13.89" length="11.20" shape="296.00,-1.60 307.20,-1.60"/>
    </edge>
    <edge id=":n_2_0_3" function="internal">
        <lane id=":n_2_0_3_0" index="0" speed="7.33" length="2.51" shape="296.00,-1.60 298.45,-1.05"/>
    </edge>
    <edge id=":n_2_0_4" function="internal">
        <lane id=":n_2_0_4_0" index="0" speed="7.33" length="9.21" shape="298.45,-1.05 300.20,0.60 301.25,3.35 301.60,7.20"/>
    </edge>
    <edge id=":n_2_1_0" function="internal">
        <lane id=":n_2_1_0_0" index="0" speed="6.51" length="9.03" shape="307.20,151.60 304.75,151.95 303.00,153.00 301.95,154.75 301.60,157.20"/>
    </edge>
    <edge id=":n_2_1_1" function="internal">
        <lane id=":n_2_1_1_0" index="0" speed="8.33" length="11.20" shape="307.20,151.60 296.00,151.60"/>
    </edge>
    <edge id=":n_2_1_2" function="internal">
        <lane id=":n_2_1_2_0" index="0" speed="8.33" length="11.20" shape="301.60,146.00 301.60,157.20"/>
    </edge>
    <edge id=":n_2_1_3" function="internal">
        <lane id=":n_2_1_3_0" index="0" speed="6.51" length="4.11" shape="301.60,146.00 301.25,148.45 300.41,149.85"/>
    </edge>
    <edge id=":n_2_1_4" function="internal">
        <lane id=":n_2_1_4_0" index="0" speed="6.51" length="4.93" shape="300.41,149.85 300.20,150.20 298.45,151.25 296.00,151.60"/>
    </edge>
    <edge id=":n_2_2_0" function="internal">
        <lane id=":n_2_2_0_0" index="0" speed="6.51" length="9.03" shape="301.60,292.80 301.95,295.25 303.00,297.00 304.75,298.05 307.20,298.40"/>
    </edge>
    <edge id=":n_2_2_1" function="internal">
        <lane id=":n_2_2_1_0" index="0" speed="8.33" length="11.20" shape="301.60,292.80 301.60,304.00"/>
    </edge>
    <edge id=":n_2_2_2" function="internal">
        <lane id=":n_2_2_2_0" index="0" speed="8.33" length="11.20" shape="296.00,298.40 307.20,298.40"/>
    </edge>
    <edge id=":n_2_2_3" function="internal">
        <lane id=":n_2_2_3_0" index="0" speed="6.51" length="4.11" shape="296.00,298.40 298.45,298.75 299.85,299.59"/>
    </edge>
    <edge id=":n_2_2_4" function="internal">
        <lane id=":n_2_2_4_0" index="0" speed="6.51" length="4.93" shape="299.85,299.59 300.20,299.80 301.25,301.55 301.60,304.00"/>
    </edge>
    <edge id=":n_2_3_0" function="internal">
        <lane id=":n_2_3_0_0" index="0" speed="6.51" length="9.03" shape="307.20,451.60 304.75,451.95 303.00,453.00 301.95,454.75 301.60,457.20"/>
    </edge>
    <edge id=":n_2_3_1" function="internal">
        <lane id=":n_2_3_1_0" index="0" speed="13.89" length="11.20" shape="307.20,451.60 296.00,451.60"/>
    </edge>
    <edge id=":n_2_3_2" function="internal">
        <lane id=":n_2_3_2_0" index="0" speed="6.51" length="9.03" shape="301.60,442.80 301.95,445.25 303.00,447.00 304.75,448.05 307.20,448.40"/>
    </edge>
    <edge id=":n_2_3_3" function="internal">
        <lane id=":n_2_3_3_0" index="0" speed="8.33" length="14.40" shape="301.60,442.80 301.60,457.20"/>
    </edge>
    <edge id=":n_2_3_4" function="internal">
        <lane id=":n_2_3_4_0" index="0" speed="7.33" length="11.73" shape="301.60,442.80 301.25,446.65 300.20,449.40 298.45,451.05 296.00,451.60"/>
    </edge>
    <edge id=":n_2_3_5" function="internal">
        <lane id=":n_2_3_5_0" index="0" speed="13.89" length="11.20" shape="296.00,448.40 307.20,448.40"/>
    </edge>
    <edge id=":n_2_3_6" function="internal">
        <lane id=":n_2_3_6_0" index="0" speed="7.33" length="2.51" shape="296.00,448.40 298.45,448.95"/>
    </edge>
    <edge id=":n_2_3_7" function="internal">
        <lane id=":n_2_3_7_0" index="0" speed="7.33" length="9.21" shape="298.45,448.95 300.20,450.60 301.25,453.35 301.60,457.20"/>
    </edge>
    <edge id=":n_2_4_0" function="internal">
        <lane id=":n_2_4_0_0" index="0" speed="6.51" length="9.03" shape="301.60,592.80 301.95,595.25 303.00,597.00 304.75,598.05 307.20,598.40"/>
    </edge>
    <edge id=":n_2_4_1" function="internal">
        <lane id=":n_2_4_1_0" index="0" speed="8.33" length="11.20" shape="296.00,598.40 307.20,598.40"/>
    </edge>
    <edge id=":n_3_0_0" function="internal">
        <lane id=":n_3_0_0_0" index="0" speed="6.51" length="9.03" shape="448.40,7.20 448.05,4.75 447.00,3.00 445.25,1.95 442.80,1.60"/>
    </edge>
    <edge id=":n_3_0_1" function="internal">
        <lane id=":n_3_0_1_0" index="0" speed="8.00" length="14.19" shape="448.40,7.20 448.95,3.35 450.60,0.60 453.35,-1.05 457.20,-1.60"/>
    </edge>
    <edge id=":n_3_0_2" function="internal">
        <lane id=":n_3_0_2_0" index="0" speed="6.51" length="9.03" shape="457.20,1.60 454.75,1.95 453.00,3.00 451.95,4.75 451.60,7.20"/>
    </edge>
    <edge id=":n_3_0_3" function="internal">
        <lane id=":n_3_0_3_0" index="0" speed="13.89" length="14.40" shape="457.20,1.60 442.80,1.60"/>
    </edge>
    <edge id=":n_3_0_4" function="internal">
        <lane id=":n_3_0_4_0" index="0" speed="13.89" length="14.40" shape="442.80,-1.60 457.20,-1.60"/>
    </edge>
    <edge id=":n_3_0_5" function="internal">
        <lane id=":n_3_0_5_0" index="0" speed="8.00" length="4.07" shape="442.80,-1.60 446.65,-1.05 446.80,-0.96"/>
    </edge>
    <edge id=":n_3_0_6" function="internal">
        <lane id=":n_3_0_6_0" index="0" speed="8.00" length="10.13" shape="446.80,-0.96 449.40,0.60 451.05,3.35 451.60,7.20"/>
    </edge>
    <edge id=":n_3_1_0" function="internal">
        <lane id=":n_3_1_0_0" index="0" speed="6.51" length="9.03" shape="448.40,157.20 448.05,154.75 447.00,153.00 445.25,151.95 442.80,151.60"/>
    </edge>
    <edge id=":n_3_1_1" function="internal">
        <lane id=":n_3_1_1_0" index="0" speed="13.89" length="11.20" shape="448.40,157.20 448.40,146.00"/>
    </edge>
    <edge id=":n_3_1_2" function="internal">
        <lane id=":n_3_1_2_0" index="0" speed="6.51" length="9.03" shape="457.20,151.60 454.75,151.95 453.00,153.00 451.95,154.75 451.60,157.20"/>
    </edge>
    <edge id=":n_3_1_3" function="internal">
        <lane id=":n_3_1_3_0" index="0" speed="8.33" length="14.40" shape="457.20,151.60 442.80,151.60"/>
    </edge>
    <edge id=":n_3_1_4" function="internal">
        <lane id=":n_3_1_4_0" index="0" speed="7.33" length="11.73" shape="457.20,151.60 453.35,151.25 450.60,150.20 448.95,148.45 448.40,146.00"/>
    </edge>
    <edge id=":n_3_1_5" function="internal">
        <lane id=":n_3_1_5_0" index="0" speed="13.89" length="11.20" shape="451.60,146.00 451.60,157.20"/>
    </edge>
    <edge id=":n_3_1_6" function="internal">
        <lane id=":n_3_1_6_0" index="0" speed="7.33" length="2.51" shape="451.60,146.00 451.05,148.45"/>
    </edge>
    <edge id=":n_3_1_7" function="internal">
        <lane id=":n_3_1_7_0" index="0" speed="7.33" length="9.21" shape="451.05,148.45 449.40,150.20 446.65,151.25 442.80,151.60"/>
    </edge>
    <edge id=":n_3_2_0" function="internal">
        <lane id=":n_3_2_0_0" index="0" speed="13.89" length="11.20" shape="448.40,304.00 448.40,292.80"/>
    </edge>
    <edge id=":n_3_2_1" function="internal">
        <lane id=":n_3_2_1_0" index="0" speed="7.33" length="2.51" shape="448.40,304.00 448.95,301.55"/>
    </edge>
    <edge id=":n_3_2_7" function="internal">
        <lane id=":n_3_2_7_0" index="0" speed="7.33" length="9.21" shape="448.95,301.55 450.60,299.80 453.35,298.75 457.20,298.40"/>
    </edge>
    <edge id=":n_3_2_2" function="internal">
        <lane id=":n_3_2_2_0" index="0" speed="6.51" length="9.03" shape="451.60,292.80 451.95,295.25 453.00,297.00 454.75,298.05 457.20,298.40"/>
    </edge>
    <edge id=":n_3_2_3" function="internal">
        <lane id=":n_3_2_3_0" index="0" speed="13.89" length="11.20" shape="451.60,292.80 451.60,304.00"/>
    </edge>
    <edge id=":n_3_2_4" function="internal">
        <lane id=":n_3_2_4_0" index="0" speed="6.51" length="9.03" shape="442.80,298.40 445.25,298.05 447.00,297.00 448.05,295.25 448.40,292.80"/>
    </edge>
    <edge id=":n_3_2_5" function="internal">
        <lane id=":n_3_2_5_0" index="0" speed="8.33" length="14.40" shape="442.80,298.40 457.20,298.40"/>
    </edge>
    <edge id=":n_3_2_6" function="internal">
        <lane id=":n_3_2_6_0" index="0" speed="7.33" length="11.73" shape="442.80,298.40 446.65,298.75 449.40,299.80 451.05,301.55 451.60,304.00"/>
    </edge>
    <edge id=":n_3_3_0" function="internal">
        <lane id=":n_3_3_0_0" index="0" speed="6.51" length="9.03" shape="448.40,457.20 448.05,454.75 447.00,453.00 445.25,451.95 442.80,451.60"/>
    </edge>
    <edge id=":n_3_3_1" function="internal">
        <lane id=":n_3_3_1_0" index="0" speed="13.89" length="14.40" shape="448.40,457.20 448.40,442.80"/>
    </edge>
    <edge id=":n_3_3_2" function="internal">
        <lane id=":n_3_3_2_0" index="0" speed="8.00" length="4.07" shape="448.40,457.20 448.95,453.35 449.04,453.20"/>
    </edge>
    <edge id=":n_3_3_12" function="internal">
        <lane id=":n_3_3_12_0" index="0" speed="8.00" length="10.13" shape="449.04,453.20 450.60,450.60 453.35,448.95 457.20,448.40"/>
    </edge>
    <edge id=":n_3_3_3" function="internal">
        <lane id=":n_3_3_3_0" index="0" speed="6.51" length="9.03" shape="457.20,451.60 454.75,451.95 453.00,453.00 451.95,454.75 451.60,457.20"/>
    </edge>
    <edge id=":n_3_3_4" function="internal">
        <lane id=":n_3_3_4_0" index="0" speed="13.89" length="14.40" shape="457.20,451.60 442.80,451.60"/>
    </edge>
    <edge id=":n_3_3_5" function="internal">
        <lane id=":n_3_3_5_0" index="0" speed="8.00" length="14.19" shape="457.20,451.60 453.35,451.05 450.60,449.40 448.95,446.65 448.40,442.80"/>
    </edge>
    <edge id=":n_3_3_6" function="internal">
        <lane id=":n_3_3_6_0" index="0" speed="6.51" length="9.03" shape="451.60,442.80 451.95,445.25 453.00,447.00 454.75,448.05 457.20,448.40"/>
    </edge>
    <edge id=":n_3_3_7" function="internal">
        <lane id=":n_3_3_7_0" index="0" speed="13.89" length="14.40" shape="451.60,442.80 451.60,457.20"/>
    </edge>
    <edge id=":n_3_3_8" function="internal">
        <lane id=":n_3_3_8_0" index="0" speed="8.00" length="4.07" shape="451.60,442.80 451.05,446.65 450.96,446.80"/>
    </edge>
    <edge id=":n_3_3_13" function="internal">
        <lane id=":n_3_3_13_0" index="0" speed="8.00" length="10.13" shape="450.96,446.80 449.40,449.40 446.65,451.05 442.80,451.60"/>
    </edge>
    <edge id=":n_3_3_9" function="internal">
        <lane id=":n_3_3_9_0" index="0" speed="6.51" length="9.03" shape="442.80,448.40 445.25,448.05 447.00,447.00 448.05,445.25 448.40,442.80"/>
    </edge>
    <edge id=":n_3_3_10" function="internal">
        <lane id=":n_3_3_10_0" index="0" speed="13.89" length="14.40" shape="442.80,448.40 457.20,448.40"/>
    </edge>
    <edge id=":n_3_3_11" function="internal">
        <lane id=":n_3_3_11_0" index="0" speed="8.00" length="14.19" shape="442.80,448.40 446.65,448.95 449.40,450.60 451.05,453.35 451.60,457.20"/>
    </edge>
    <edge id=":n_3_4_0" function="internal">
        <lane id=":n_3_4_0_0" index="0" speed="6.51" length="9.03" shape="451.60,592.80 451.95,595.25 453.00,597.00 454.75,598.05 457.20,598.40"/>
    </edge>
    <edge id=":n_3_4_1" function="internal">
        <lane id=":n_3_4_1_0" index="0" speed="6.51" length="9.03" shape="442.80,598.40 445.25,598.05 447.00,597.00 448.05,595.25 448.40,592.80"/>
    </edge>
    <edge id=":n_3_4_2" function="internal">
        <lane id=":n_3_4_2_0" index="0" speed="8.33" length="14.40" shape="442.80,598.40 457.20,598.40"/>
    </edge>
    <edge id=":n_4_0_0" function="internal">
        <lane id=":n_4_0_0_0" index="0" speed="6.08" length="7.76" shape="598.50,-1.60 599.86,-1.21 600.83,-0.02 601.41,1.94 601.60,4.70"/>
    </edge>
    <edge id=":n_4_1_0" function="internal">
        <lane id=":n_4_1_0_0" index="0" speed="8.33" length="11.20" shape="601.60,146.00 601.60,157.20"/>
    </edge>
    <edge id=":n_4_1_1" function="internal">
        <lane id=":n_4_1_1_0" index="0" speed="6.51" length="9.03" shape="601.60,146.00 601.25,148.45 600.20,150.20 598.45,151.25 596.00,151.60"/>
    </edge>
    <edge id=":n_4_2_0" function="internal">
        <lane id=":n_4_2_0_0" index="0" speed="8.33" length="11.20" shape="601.60,292.80 601.60,304.00"/>
    </edge>
    <edge id=":n_4_2_1" function="internal">
        <lane id=":n_4_2_1_0" index="0" speed="6.51" length="4.11" shape="596.00,298.40 598.45,298.75 599.85,299.59"/>
    </edge>
    <edge id=":n_4_2_2" function="internal">
        <lane id=":n_4_2_2_0" index="0" speed="6.51" length="4.93" shape="599.85,299.59 600.20,299.80 601.25,301.55 601.60,304.00"/>
    </edge>
    <edge id=":n_4_3_0" function="internal">
        <lane id=":n_4_3_0_0" index="0" speed="8.33" length="9.40" shape="601.60,445.30 601.60,454.70"/>
    </edge>
    <edge id=":n_4_3_1" function="internal">
        <lane id=":n_4_3_1_0" index="0" speed="6.08" length="7.76" shape="601.60,445.30 601.41,448.06 600.83,450.02 599.86,451.21 598.50,451.60"/>
    </edge>
    <edge id=":n_4_3_2" function="internal">
        <lane id=":n_4_3_2_0" index="0" speed="6.08" length="7.76" shape="598.50,448.40 599.86,448.79 600.83,449.97 601.41,451.94 601.60,454.70"/>
    </edge>

    <edge id="E_n_0_0_n_0_1" from="n_0_0" to="n_0_1" priority="1">
        <lane id="E_n_0_0_n_0_1_0" index="0" speed="8.33" length="138.80" shape="1.60,7.20 1.60,146.00"/>
    </edge>
    <edge id="E_n_0_0_n_1_0" from="n_0_0" to="n_1_0" priority="2">
        <lane id="E_n_0_0_n_1_0_0" index="0" speed="13.89" length="135.60" shape="7.20,-1.60 142.80,-1.60"/>
    </edge>
    <edge id="E_n_0_1_n_0_2" from="n_0_1" to="n_0_2" priority="1">
        <lane id="E_n_0_1_n_0_2_0" index="0" speed="8.33" length="135.60" shape="1.60,157.20 1.60,292.80"/>
    </edge>
    <edge id="E_n_0_2_n_0_3" from="n_0_2" to="n_0_3" priority="1">
        <lane id="E_n_0_2_n_0_3_0" index="0" speed="8.33" length="138.80" shape="1.60,304.00 1.60,442.80"/>
    </edge>
    <edge id="E_n_0_2_n_1_2" from="n_0_2" to="n_1_2" priority="1">
        <lane id="E_n_0_2_n_1_2_0" index="0" speed="8.33" length="135.60" shape="7.20,298.40 142.80,298.40"/>
    </edge>
    <edge id="E_n_0_3_n_0_4" from="n_0_3" to="n_0_4" priority="1">
        <lane id="E_n_0_3_n_0_4_0" index="0" speed="8.33" length="139.60" shape="1.60,457.20 1.60,596.80"/>
    </edge>
    <edge id="E_n_0_3_n_1_3" from="n_0_3" to="n_1_3" priority="2">
        <lane id="E_n_0_3_n_1_3_0" index="0" speed="13.89" length="135.60" shape="7.20,448.40 142.80,448.40"/>
    </edge>
    <edge id="E_n_0_4_n_1_4" from="n_0_4" to="n_1_4" priority="1">
        <lane id="E_n_0_4_n_1_4_0" index="0" speed="8.33" length="139.60" shape="3.20,598.40 142.80,598.40"/>
    </edge>
    <edge id="E_n_1_0_n_0_0" from="n_1_0" to="n_0_0" priority="2">
        <lane id="E_n_1_0_n_0_0_0" index="0" speed="13.89" length="135.60" shape="142.80,1.60 7.20,1.60"/>
    </edge>
    <edge id="E_n_1_0_n_1_1" from="n_1_0" to="n_1_1" priority="2">
        <lane id="E_n_1_0_n_1_1_0" index="0" speed="13.89" length="138.80" shape="151.60,7.20 151.60,146.00"/>
    </edge>
    <edge id="E_n_1_0_n_2_0" from="n_1_0" to="n_2_0" priority="2">
        <lane id="E_n_1_0_n_2_0_0" index="0" speed="13.89" length="138.80" shape="157.20,-1.60 296.00,-1.60"/>
    </edge>
    <edge id="E_n_1_1_n_0_1" from="n_1_1" to="n_0_1" priority="1">
        <lane id="E_n_1_1_n_0_1_0" index="0" speed="8.33" length="135.60" shape="142.80,151.60 7.20,151.60"/>
    </edge>
    <edge id="E_n_1_1_n_1_0" from="n_1_1" to="n_1_0" priority="2">
        <lane id="E_n_1_1_n_1_0_0" index="0" speed="13.89" length="138.80" shape="148.40,146.00 148.40,7.20"/>
    </edge>
    <edge id="E_n_1_1_n_1_2" from="n_1_1" to="n_1_2" priority="2">
        <lane id="E_n_1_1_n_1_2_0" index="0" speed="13.89" length="135.60" shape="151.60,157.20 151.60,292.80"/>
    </edge>
    <edge id="E_n_1_2_n_1_1" from="n_1_2" to="n_1_1" priority="2">
        <lane id="E_n_1_2_n_1_1_0" index="0" speed="13.89" length="135.60" shape="148.40,292.80 148.40,157.20"/>
    </edge>
    <edge id="E_n_1_2_n_1_3" from="n_1_2" to="n_1_3" priority="2">
        <lane id="E_n_1_2_n_1_3_0" index="0" speed="13.89" length="138.80" shape="151.60,304.00 151.60,442.80"/>
    </edge>
    <edge id="E_n_1_2_n_2_2" from="n_1_2" to="n_2_2" priority="1">
        <lane id="E_n_1_2_n_2_2_0" index="0" speed="8.33" length="138.80" shape="157.20,298.40 296.00,298.40"/>
    </edge>
    <edge id="E_n_1_3_n_0_3" from="n_1_3" to="n_0_3" priority="2">
        <lane id="E_n_1_3_n_0_3_0" index="0" speed="13.89" length="135.60" shape="142.80,451.60 7.20,451.60"/>
    </edge>
    <edge id="E_n_1_3_n_1_2" from="n_1_3" to="n_1_2" priority="2">
        <lane id="E_n_1_3_n_1_2_0" index="0" speed="13.89" length="138.80" shape="148.40,442.80 148.40,304.00"/>
    </edge>
    <edge id="E_n_1_3_n_1_4" from="n_1_3" to="n_1_4" priority="2">
        <lane id="E_n_1_3_n_1_4_0" index="0" speed="13.89" length="135.60" shape="151.60,457.20 151.60,592.80"/>
    </edge>
    <edge id="E_n_1_3_n_2_3" from="n_1_3" to="n_2_3" priority="2">
        <lane id="E_n_1_3_n_2_3_0" index="0" speed="13.89" length="138.80" shape="157.20,448.40 296.00,448.40"/>
    </edge>
    <edge id="E_n_1_4_n_1_3" from="n_1_4" to="n_1_3" priority="2">
        <lane id="E_n_1_4_n_1_3_0" index="0" speed="13.89" length="135.60" shape="148.40,592.80 148.40,457.20"/>
    </edge>
    <edge id="E_n_1_4_n_2_4" from="n_1_4" to="n_2_4" priority="1">
        <lane id="E_n_1_4_n_2_4_0" index="0" speed="8.33" length="138.80" shape="157.20,598.40 296.00,598.40"/>
    </edge>
    <edge id="E_n_2_0_n_1_0" from="n_2_0" to="n_1_0" priority="2">
        <lane id="E_n_2_0_n_1_0_0" index="0" speed="13.89" length="138.80" shape="296.00,1.60 157.20,1.60"/>
    </edge>
    <edge id="E_n_2_0_n_2_1" from="n_2_0" to="n_2_1" priority="1">
        <lane id="E_n_2_0_n_2_1_0" index="0" speed="8.33" length="138.80" shape="301.60,7.20 301.60,146.00"/>
    </edge>
    <edge id="E_n_2_0_n_3_0" from="n_2_0" to="n_3_0" priority="2">
        <lane id="E_n_2_0_n_3_0_0" index="0" speed="13.89" length="135.60" shape="307.20,-1.60 442.80,-1.60"/>
    </edge>
    <edge id="E_n_2_1_n_1_1" from="n_2_1" to="n_1_1" priority="1">
        <lane id="E_n_2_1_n_1_1_0" index="0" speed="8.33" length="138.80" shape="296.00,151.60 157.20,151.60"/>
    </edge>
    <edge id="E_n_2_1_n_2_2" from="n_2_1" to="n_2_2" priority="1">
        <lane id="E_n_2_1_n_2_2_0" index="0" speed="8.33" length="135.60" shape="301.60,157.20 301.60,292.80"/>
    </edge>
    <edge id="E_n_2_2_n_2_3" from="n_2_2" to="n_2_3" priority="1">
        <lane id="E_n_2_2_n_2_3_0" index="0" speed="8.33" length="138.80" shape="301.60,304.00 301.60,442.80"/>
    </edge>
    <edge id="E_n_2_2_n_3_2" from="n_2_2" to="n_3_2" priority="1">
        <lane id="E_n_2_2_n_3_2_0" index="0" speed="8.33" length="135.60" shape="307.20,298.40 442.80,298.40"/>
    </edge>
    <edge id="E_n_2_3_n_1_3" from="n_2_3" to="n_1_3" priority="2">
        <lane id="E_n_2_3_n_1_3_0" index="0" speed="13.89" length="138.80" shape="296.00,451.60 157.20,451.60"/>
    </edge>
    <edge id="E_n_2_3_n_2_4" from="n_2_3" to="n_2_4" priority="1">
        <lane id="E_n_2_3_n_2_4_0" index="0" speed="8.33" length="135.60" shape="301.60,457.20 301.60,592.80"/>
    </edge>
    <edge id="E_n_2_3_n_3_3" from="n_2_3" to="n_3_3" priority="2">
        <lane id="E_n_2_3_n_3_3_0" index="0" speed="13.89" length="135.60" shape="307.20,448.40 442.80,448.40"/>
    </edge>
    <edge id="E_n_2_4_n_3_4" from="n_2_4" to="n_3_4" priority="1">
        <lane id="E_n_2_4_n_3_4_0" index="0" speed="8.33" length="135.60" shape="307.20,598.40 442.80,598.40"/>
    </edge>