<?xml version="1.0" encoding="UTF-8"?>

<!-- generated on 2026-04-28T23:16:12.249375+01:00 by Eclipse SUMO netconvert 1.26.0
<netconvertConfiguration xmlns:xsi="http://www.w3.org/2001/XMLSchema-instance" xsi:noNamespaceSchemaLocation="http://sumo.dlr.de/xsd/netconvertConfiguration.xsd">

    <input>
        <node-files value="scenarios/autonomous/auto.nod.xml"/>
        <edge-files value="scenarios/autonomous/auto.edg.xml"/>
    </input>

    <output>
        <output-file value="scenarios/autonomous/autonomous.net.xml"/>
    </output>

    <junctions>
        <no-turnarounds value="true"/>
    </junctions>

</netconvertConfiguration>
-->

<net version="1.20" junctionCornerDetail="5" limitTurnSpeed="5.50" xmlns:xsi="http://www.w3.org/2001/XMLSchema-instance" xsi:noNamespaceSchemaLocation="http://sumo.dlr.de/xsd/net_file.xsd">

    <location netOffset="0.00,0.00" convBoundary="0.00,0.00,600.00,600.00" origBoundary="0.00,0.00,600.00,600.00" projParameter="!"/>

    <edge id=":n_0_1_0" function="internal">
        <lane id=":n_0_1_0_0" index="0" speed="6.51" length="9.03" shape="7.20,151.60 4.75,151.95 3.00,153.00 1.95,154.75 1.60,157.20"/>
    </edge>
    <edge id=":n_0_1_1" function="internal">
        <lane id=":n_0_1_1_0" index="0" speed="8.33" length="11.20" shape="1.60,146.00 1.60,157.20"/>
    </edge>
    <edge id=":n_0_2_0" function="internal">
        <lane id=":n_0_2_0_0" index="0" speed="6.51" length="9.03" shape="7.20,301.60 4.75,301.95 3.00,303.00 1.95,304.75 1.60,307.20"/>
    </edge>
    <edge id=":n_0_2_1" function="internal">
        <lane id=":n_0_2_1_0" index="0" speed="6.51" length="9.03" shape="1.60,292.80 1.95,295.25 3.00,297.00 4.75,298.05 7.20,298.40"/>
    </edge>
    <edge id=":n_0_2_2" function="internal">
        <lane id=":n_0_2_2_0" index="0" speed="8.33" length="14.40" shape="1.60,292.80 1.60,307.20"/>
    </edge>
    <edge id=":n_0_3_0" function="internal">
        <lane id=":n_0_3_0_0" index="0" speed="6.51" length="9.03" shape="7.20,451.60 4.75,451.95 3.00,453.00 1.95,454.75 1.60,457.20"/>
    </edge>
    <edge id=":n_0_3_1" function="internal">
        <lane id=":n_0_3_1_0" index="0" speed="6.51" length="9.03" shape="1.60,442.80 1.95,445.25 3.00,447.00 4.75,448.05 7.20,448.40"/>
    </edge>
    <edge id=":n_0_3_2" function="internal">
        <lane id=":n_0_3_2_0" index="0" speed="8.33" length="14.40" shape="1.60,442.80 1.60,457.20"/>
    </edge>
    <edge id=":n_0_4_0" function="internal">
        <lane id=":n_0_4_0_0" index="0" speed="3.90" length="2.58" shape="1.60,596.80 1.70,597.50 2.00,598.00 2.50,598.30 3.20,598.40"/>
    </edge>
    <edge id=":n_1_0_0" function="internal">
        <lane id=":n_1_0_0_0" index="0" speed="6.51" length="4.11" shape="148.40,4.00 148.75,1.55 149.59,0.15"/>
    </edge>
    <edge id=":n_1_0_2" function="internal">
        <lane id=":n_1_0_2_0" index="0" speed="6.51" length="4.93" shape="149.59,0.15 149.80,-0.20 151.55,-1.25 154.00,-1.60"/>
    </edge>
    <edge id=":n_1_0_1" function="internal">
        <lane id=":n_1_0_1_0" index="0" speed="8.33" length="11.20" shape="142.80,-1.60 154.00,-1.60"/>
    </edge>
    <edge id=":n_1_1_0" function="internal">
        <lane id=":n_1_1_0_0" index="0" speed="6.51" length="9.03" shape="148.40,157.20 148.05,154.75 147.00,153.00 145.25,151.95 142.80,151.60"/>
    </edge>
    <edge id=":n_1_1_1" function="internal">
        <lane id=":n_1_1_1_0" index="0" speed="8.33" length="11.20" shape="148.40,157.20 148.40,146.00"/>
    </edge>
    <edge id=":n_1_1_2" function="internal">
        <lane id=":n_1_1_2_0" index="0" speed="8.33" length="11.20" shape="154.00,151.60 142.80,151.60"/>
    </edge>
    <edge id=":n_1_1_3" function="internal">
        <lane id=":n_1_1_3_0" index="0" speed="6.51" length="4.11" shape="154.00,151.60 151.55,151.25 150.15,150.41"/>
    </edge>
    <edge id=":n_1_1_4" function="internal">
        <lane id=":n_1_1_4_0" index="0" speed="6.51" length="4.93" shape="150.15,150.41 149.80,150.20 148.75,148.45 148.40,146.00"/>
    </edge>
    <edge id=":n_1_2_0" function="internal">
        <lane id=":n_1_2_0_0" index="0" speed="6.51" length="9.03" shape="148.40,307.20 148.05,304.75 147.00,303.00 145.25,301.95 142.80,301.60"/>
    </edge>
    <edge id=":n_1_2_1" function="internal">
        <lane id=":n_1_2_1_0" index="0" speed="8.33" length="14.40" shape="148.40,307.20 148.40,292.80"/>
    </edge>
    <edge id=":n_1_2_2" function="internal">
        <lane id=":n_1_2_2_0" index="0" speed="7.33" length="11.73" shape="148.40,307.20 148.75,303.35 149.80,300.60 151.55,298.95 154.00,298.40"/>
    </edge>
    <edge id=":n_1_2_3" function="internal">
        <lane id=":n_1_2_3_0" index="0" speed="13.89" length="11.20" shape="154.00,301.60 142.80,301.60"/>
    </edge>
    <edge id=":n_1_2_4" function="internal">
        <lane id=":n_1_2_4_0" index="0" speed="7.33" length="2.51" shape="154.00,301.60 151.55,301.05"/>
    </edge>
    <edge id=":n_1_2_7" function="internal">
        <lane id=":n_1_2_7_0" index="0" speed="7.33" length="9.21" shape="151.55,301.05 149.80,299.40 148.75,296.65 148.40,292.80"/>
    </edge>
    <edge id=":n_1_2_5" function="internal">
        <lane id=":n_1_2_5_0" index="0" speed="6.51" length="9.03" shape="142.80,298.40 145.25,298.05 147.00,297.00 148.05,295.25 148.40,292.80"/>
    </edge>
    <edge id=":n_1_2_6" function="internal">
        <lane id=":n_1_2_6_0" index="0" speed="13.89" length="11.20" shape="142.80,298.40 154.00,298.40"/>
    </edge>
    <edge id=":n_1_3_0" function="internal">
        <lane id=":n_1_3_0_0" index="0" speed="6.51" length="9.03" shape="148.40,457.20 148.05,454.75 147.00,453.00 145.25,451.95 142.80,451.60"/>
    </edge>
    <edge id=":n_1_3_1" function="internal">
        <lane id=":n_1_3_1_0" index="0" speed="8.33" length="14.40" shape="148.40,457.20 148.40,442.80"/>
    </edge>
    <edge id=":n_1_3_2" function="internal">
        <lane id=":n_1_3_2_0" index="0" speed="7.33" length="11.73" shape="148.40,457.20 148.75,453.35 149.80,450.60 151.55,448.95 154.00,448.40"/>
    </edge>
    <edge id=":n_1_3_3" function="internal">
        <lane id=":n_1_3_3_0" index="0" speed="13.89" length="11.20" shape="154.00,451.60 142.80,451.60"/>
    </edge>
    <edge id=":n_1_3_4" function="internal">
        <lane id=":n_1_3_4_0" index="0" speed="7.33" length="2.51" shape="154.00,451.60 151.55,451.05"/>
    </edge>
    <edge id=":n_1_3_7" function="internal">
        <lane id=":n_1_3_7_0" index="0" speed="7.33" length="9.21" shape="151.55,451.05 149.80,449.40 148.75,446.65 148.40,442.80"/>
    </edge>
    <edge id=":n_1_3_5" function="internal">
        <lane id=":n_1_3_5_0" index="0" speed="6.51" length="9.03" shape="142.80,448.40 145.25,448.05 147.00,447.00 148.05,445.25 148.40,442.80"/>
    </edge>
    <edge id=":n_1_3_6" function="internal">
        <lane id=":n_1_3_6_0" index="0" speed="13.89" length="11.20" shape="142.80,448.40 154.00,448.40"/>
    </edge>
    <edge id=":n_1_4_0" function="internal">
        <lane id=":n_1_4_0_0" index="0" speed="6.51" length="9.03" shape="142.80,598.40 145.25,598.05 147.00,597.00 148.05,595.25 148.40,592.80"/>
    </edge>
    <edge id=":n_1_4_1" function="internal">
        <lane id=":n_1_4_1_0" index="0" speed="8.33" length="11.20" shape="142.80,598.40 154.00,598.40"/>
    </edge>
    <edge id=":n_2_0_0" function="internal">
        <lane id=":n_2_0_0_0" index="0" speed="6.08" length="7.76" shape="298.40,1.50 298.79,0.14 299.98,-0.82 301.94,-1.41 304.70,-1.60"/>
    </edge>
    <edge id=":n_2_0_1" function="internal">
        <lane id=":n_2_0_1_0" index="0" speed="8.33" length="9.40" shape="295.30,-1.60 304.70,-1.60"/>
    </edge>
    <edge id=":n_2_0_2" function="internal">
        <lane id=":n_2_0_2_0" index="0" speed="6.08" length="7.76" shape="295.30,-1.60 298.06,-1.41 300.02,-0.83 301.21,0.14 301.60,1.50"/>
    </edge>
    <edge id=":n_2_1_0" function="internal">
        <lane id=":n_2_1_0_0" index="0" speed="6.51" length="9.03" shape="298.40,157.20 298.05,154.75 297.00,153.00 295.25,151.95 292.80,151.60"/>
    </edge>
    <edge id=":n_2_1_1" function="internal">
        <lane id=":n_2_1_1_0" index="0" speed="13.89" length="11.20" shape="298.40,157.20 298.40,146.00"/>
    </edge>
    <edge id=":n_2_1_2" function="internal">
        <lane id=":n_2_1_2_0" index="0" speed="6.51" length="9.03" shape="307.20,151.60 304.75,151.95 303.00,153.00 301.95,154.75 301.60,157.20"/>
    </edge>
    <edge id=":n_2_1_3" function="internal">
        <lane id=":n_2_1_3_0" index="0" speed="8.33" length="14.40" shape="307.20,151.60 292.80,151.60"/>
    </edge>
    <edge id=":n_2_1_4" function="internal">
        <lane id=":n_2_1_4_0" index="0" speed="7.33" length="11.73" shape="307.20,151.60 303.35,151.25 300.60,150.20 298.95,148.45 298.40,146.00"/>
    </edge>
    <edge id=":n_2_1_5" function="internal">
        <lane id=":n_2_1_5_0" index="0" speed="13.89" length="11.20" shape="301.60,146.00 301.60,157.20"/>
    </edge>
    <edge id=":n_2_1_6" function="internal">
        <lane id=":n_2_1_6_0" index="0" speed="7.33" length="2.51" shape="301.60,146.00 301.05,148.45"/>
    </edge>
    <edge id=":n_2_1_7" function="internal">
        <lane id=":n_2_1_7_0" index="0" speed="7.33" length="9.21" shape="301.05,148.45 299.40,150.20 296.65,151.25 292.80,151.60"/>
    </edge>
    <edge id=":n_2_2_0" function="internal">
        <lane id=":n_2_2_0_0" index="0" speed="6.51" length="9.03" shape="298.40,307.20 298.05,304.75 297.00,303.00 295.25,301.95 292.80,301.60"/>
    </edge>
    <edge id=":n_2_2_1" function="internal">
        <lane id=":n_2_2_1_0" index="0" speed="13.89" length="14.40" shape="298.40,307.20 298.40,292.80"/>
    </edge>
    <edge id=":n_2_2_2" function="internal">
        <lane id=":n_2_2_2_0" index="0" speed="8.00" length="4.07" shape="298.40,307.20 298.95,303.35 299.04,303.20"/>
    </edge>
    <edge id=":n_2_2_12" function="internal">
        <lane id=":n_2_2_12_0" index="0" speed="8.00" length="10.13" shape="299.04,303.20 300.60,300.60 303.35,298.95 307.20,298.40"/>
    </edge>
    <edge id=":n_2_2_3" function="internal">
        <lane id=":n_2_2_3_0" index="0" speed="6.51" length="9.03" shape="307.20,301.60 304.75,301.95 303.00,303.00 301.95,304.75 301.60,307.20"/>
    </edge>
    <edge id=":n_2_2_4" function="internal">
        <lane id=":n_2_2_4_0" index="0" speed="13.89" length="14.40" shape="307.20,301.60 292.80,301.60"/>
    </edge>
    <edge id=":n_2_2_5" function="internal">
        <lane id=":n_2_2_5_0" index="0" speed="8.00" length="14.19" shape="307.20,301.60 303.35,301.05 300.60,299.40 298.95,296.65 298.40,292.80"/>
    </edge>
    <edge id=":n_2_2_6" function="internal">
        <lane id=":n_2_2_6_0" index="0" speed="6.51" length="9.03" shape="301.60,292.80 301.95,295.25 303.00,297.00 304.75,298.05 307.20,298.40"/>
    </edge>
    <edge id=":n_2_2_7" function="internal">
        <lane id=":n_2_2_7_0" index="0" speed="13.89" length="14.40" shape="301.60,292.80 301.60,307.20"/>
    </edge>
    <edge id=":n_2_2_8" function="internal">
        <lane id=":n_2_2_8_0" index="0" speed="8.00" length="4.07" shape="301.60,292.80 301.05,296.65 300.96,296.80"/>
    </edge>
    <edge id=":n_2_2_13" function="internal">
        <lane id=":n_2_2_13_0" index="0" speed="8.00" length="10.13" shape="300.96,296.80 299.40,299.40 296.65,301.05 292.80,301.60"/>
    </edge>
    <edge id=":n_2_2_9" function="internal">
        <lane id=":n_2_2_9_0" index="0" speed="6.51" length="9.03" shape="292.80,298.40 295.25,298.05 297.00,297.00 298.05,295.25 298.40,292.80"/>
    </edge>
    <edge id=":n_2_2_10" function="internal">
        <lane id=":n_2_2_10_0" index="0" speed="13.89" length="14.40" shape="292.80,298.40 307.20,298.40"/>
    </edge>
    <edge id=":n_2_2_11" function="internal">
        <lane id=":n_2_2_11_0" index="0" speed="8.00" length="14.19" shape="292.80,298.40 296.65,298.95 299.40,300.60 301.05,303.35 301.60,307.20"/>
    </edge>
    <edge id=":n_2_3_0" function="internal">
        <lane id=":n_2_3_0_0" index="0" speed="6.51" length="9.03" shape="298.40,457.20 298.05,454.75 297.00,453.00 295.25,451.95 292.80,451.60"/>
    </edge>
    <edge id=":n_2_3_1" function="internal">
        <lane id=":n_2_3_1_0" index="0" speed="13.89" length="14.40" shape="298.40,457.20 298.40,442.80"/>
    </edge>
    <edge id=":n_2_3_2" function="internal">
        <lane id=":n_2_3_2_0" index="0" speed="8.00" length="4.07" shape="298.40,457.20 298.95,453.35 299.04,453.20"/>
    </edge>
    <edge id=":n_2_3_12" function="internal">
        <lane id=":n_2_3_12_0" index="0" speed="8.00" length="10.13" shape="299.04,453.20 300.60,450.60 303.35,448.95 307.20,448.40"/>
    </edge>
    <edge id=":n_2_3_3" function="internal">
        <lane id=":n_2_3_3_0" index="0" speed="6.51" length="9.03" shape="307.20,451.60 304.75,451.95 303.00,453.00 301.95,454.75 301.60,457.20"/>
    </edge>
    <edge id=":n_2_3_4" function="internal">
        <lane id=":n_2_3_4_0" index="0" speed="13.89" length="14.40" shape="307.20,451.60 292.80,451.60"/>
    </edge>
    <edge id=":n_2_3_5" function="internal">
        <lane id=":n_2_3_5_0" index="0" speed="8.00" length="14.19" shape="307.20,451.60 303.35,451.05 300.60,449.40 298.95,446.65 298.40,442.80"/>
    </edge>
    <edge id=":n_2_3_6" function="internal">
        <lane id=":n_2_3_6_0" index="0" speed="6.51" length="9.03" shape="301.60,442.80 301.95,445.25 303.00,447.00 304.75,448.05 307.20,448.40"/>
    </edge>
    <edge id=":n_2_3_7" function="internal">
        <lane id=":n_2_3_7_0" index="0" speed="13.89" length="14.40" shape="301.60,442.80 301.60,457.20"/>
    </edge>
    <edge id=":n_2_3_8" function="internal">
        <lane id=":n_2_3_8_0" index="0" speed="8.00" length="4.07" shape="301.60,442.80 301.05,446.65 300.96,446.80"/>
    </edge>
    <edge id=":n_2_3_13" function="internal">
        <lane id=":n_2_3_13_0" index="0" speed="8.00" length="10.13" shape="300.96,446.80 299.40,449.40 296.65,451.05 292.80,451.60"/>
    </edge>
    <edge id=":n_2_3_9" function="internal">
        <lane id=":n_2_3_9_0" index="0" speed="6.51" length="9.03" shape="292.80,448.40 295.25,448.05 297.00,447.00 298.05,445.25 298.40,442.80"/>
    </edge>
    <edge id=":n_2_3_10" function="internal">
        <lane id=":n_2_3_10_0" index="0" speed="13.89" length="14.40" shape="292.80,448.40 307.20,448.40"/>
    </edge>
    <edge id=":n_2_3_11" function="internal">
        <lane id=":n_2_3_11_0" index="0" speed="8.00" length="14.19" shape="292.80,448.40 296.65,448.95 299.40,450.60 301.05,453.35 301.60,457.20"/>
    </edge>
    <edge id=":n_2_4_0" function="internal">
        <lane id=":n_2_4_0_0" index="0" speed="6.51" length="9.03" shape="301.60,592.80 301.95,595.25 303.00,597.00 304.75,598.05 307.20,598.40"/>
    </edge>
    <edge id=":n_2_4_1" function="internal">
        <lane id=":n_2_4_1_0" index="0" speed="6.51" length="9.03" shape="292.80,598.40 295.25,598.05 297.00,597.00 298.05,595.25 298.40,592.80"/>
    </edge>
    <edge id=":n_2_4_2" function="internal">
        <lane id=":n_2_4_2_0" index="0" speed="8.33" length="14.40" shape="292.80,598.40 307.20,598.40"/>
    </edge>
    <edge id=":n_3_0_0" function="internal">
        <lane id=":n_3_0_0_0" index="0" speed="6.51" length="4.11" shape="448.40,4.00 448.75,1.55 449.59,0.15"/>
    </edge>
    <edge id=":n_3_0_2" function="internal">
        <lane id=":n_3_0_2_0" index="0" speed="6.51" length="4.93" shape="449.59,0.15 449.80,-0.20 451.55,-1.25 454.00,-1.60"/>
    </edge>
    <edge id=":n_3_0_1" function="internal">
        <lane id=":n_3_0_1_0" index="0" speed="8.33" length="11.20" shape="442.80,-1.60 454.00,-1.60"/>
    </edge>
    <edge id=":n_3_1_0" function="internal">
        <lane id=":n_3_1_0_0" index="0" speed="6.51" length="9.03" shape="448.40,157.20 448.05,154.75 447.00,153.00 445.25,151.95 442.80,151.60"/>
    </edge>
    <edge id=":n_3_1_1" function="internal">
        <lane id=":n_3_1_1_0" index="0" speed="8.33" length="11.20" shape="448.40,157.20 448.40,146.00"/>
    </edge>
    <edge id=":n_3_1_2" function="internal">
        <lane id=":n_3_1_2_0" index="0" speed="8.33" length="11.20" shape="454.00,151.60 442.80,151.60"/>
    </edge>
    <edge id=":n_3_1_3" function="internal">
        <lane id=":n_3_1_3_0" index="0" speed="6.51" length="4.11" shape="454.00,151.60 451.55,151.25 450.15,150.41"/>
    </edge>
    <edge id=":n_3_1_4" function="internal">
        <lane id=":n_3_1_4_0" index="0" speed="6.51" length="4.93" shape="450.15,150.41 449.80,150.20 448.75,148.45 448.40,146.00"/>
    </edge>
    <edge id=":n_3_2_0" function="internal">
        <lane id=":n_3_2_0_0" index="0" speed="6.51" length="9.03" shape="448.40,307.20 448.05,304.75 447.00,303.00 445.25,301.95 442.80,301.60"/>
    </edge>
    <edge id=":n_3_2_1" function="internal">
        <lane id=":n_3_2_1_0" index="0" speed="8.33" length="14.40" shape="448.40,307.20 448.40,292.80"/>
    </edge>
    <edge id=":n_3_2_2" function="internal">
        <lane id=":n_3_2_2_0" index="0" speed="7.33" length="11.73" shape="448.40,307.20 448.75,303.35 449.80,300.60 451.55,298.95 454.00,298.40"/>
    </edge>
    <edge id=":n_3_2_3" function="internal">
        <lane id=":n_3_2_3_0" index="0" speed="13.89" length="11.20" shape="454.00,301.60 442.80,301.60"/>
    </edge>
    <edge id=":n_3_2_4" function="internal">
        <lane id=":n_3_2_4_0" index="0" speed="7.33" length="2.51" shape="454.00,301.60 451.55,301.05"/>
    </edge>
    <edge id=":n_3_2_7" function="internal">
        <lane id=":n_3_2_7_0" index="0" speed="7.33" length="9.21" shape="451.55,301.05 449.80,299.40 448.75,296.65 448.40,292.80"/>
    </edge>
    <edge id=":n_3_2_5" function="internal">
        <lane id=":n_3_2_5_0" index="0" speed="6.51" length="9.03" shape="442.80,298.40 445.25,298.05 447.00,297.00 448.05,295.25 448.40,292.80"/>
    </edge>
    <edge id=":n_3_2_6" function="internal">
        <lane id=":n_3_2_6_0" index="0" speed="13.89" length="11.20" shape="442.80,298.40 454.00,298.40"/>
    </edge>
    <edge id=":n_3_3_0" function="internal">
        <lane id=":n_3_3_0_0" index="0" speed="6.51" length="9.03" shape="448.40,457.20 448.05,454.75 447.00,453.00 445.25,451.95 442.80,451.60"/>
    </edge>
    <edge id=":n_3_3_1" function="internal">
        <lane id=":n_3_3_1_0" index="0" speed="8.33" length="14.40" shape="448.40,457.20 448.40,442.80"/>
    </edge>
    <edge id=":n_3_3_2" function="internal">
        <lane id=":n_3_3_2_0" index="0" speed="7.33" length="11.73" shape="448.40,457.20 448.75,453.35 449.80,450.60 451.55,448.95 454.00,448.40"/>
    </edge>
    <edge id=":n_3_3_3" function="internal">
        <lane id=":n_3_3_3_0" index="0" speed="13.89" length="11.20" shape="454.00,451.60 442.80,451.60"/>
    </edge>
    <edge id=":n_3_3_4" function="internal">
        <lane id=":n_3_3_4_0" index="0" speed="7.33" length="2.51" shape="454.00,451.60 451.55,451.05"/>
    </edge>
    <edge id=":n_3_3_7" function="internal">
        <lane id=":n_3_3_7_0" index="0" speed="7.33" length="9.21" shape="451.55,451.05 449.80,449.40 448.75,446.65 448.40,442.80"/>
    </edge>
    <edge id=":n_3_3_5" function="internal">
        <lane id=":n_3_3_5_0" index="0" speed="6.51" length="9.03" shape="442.80,448.40 445.25,448.05 447.00,447.00 448.05,445.25 448.40,442.80"/>
    </edge>
    <edge id=":n_3_3_6" function="internal">
        <lane id=":n_3_3_6_0" index="0" speed="13.89" length="11.20" shape="442.80,448.40 454.00,448.40"/>
    </edge>
    <edge id=":n_3_4_0" function="internal">
        <lane id=":n_3_4_0_0" index="0" speed="6.51" length="9.03" shape="442.80,598.40 445.25,598.05 447.00,597.00 448.05,595.25 448.40,592.80"/>
    </edge>
    <edge id=":n_3_4_1" function="internal">
        <lane id=":n_3_4_1_0" index="0" speed="8.33" length="11.20" shape="442.80,598.40 454.00,598.40"/>
    </edge>
    <edge id=":n_4_0_0" function="internal">
        <lane id=":n_4_0_0_0" index="0" speed="6.08" length="7.76" shape="595.30,-1.60 598.06,-1.41 600.02,-0.83 601.21,0.14 601.60,1.50"/>
    </edge>
    <edge id=":n_4_1_0" function="internal">
        <lane id=":n_4_1_0_0" index="0" speed="6.51" length="9.03" shape="598.40,157.20 598.05,154.75 597.00,153.00 595.25,151.95 592.80,151.60"/>
    </edge>
    <edge id=":n_4_1_1" function="internal">
        <lane id=":n_4_1_1_0" index="0" speed="13.89" length="11.20" shape="598.40,157.20 598.40,146.00"/>
    </edge>
    <edge id=":n_4_1_2" function="internal">
        <lane id=":n_4_1_2_0" index="0" speed="13.89" length="11.20" shape="601.60,146.00 601.60,157.20"/>
    </edge>
    <edge id=":n_4_1_3" function="internal">
        <lane id=":n_4_1_3_0" index="0" speed="7.33" length="2.51" shape="601.60,146.00 601.05,148.45"/>
    </edge>
    <edge id=":n_4_1_4" function="internal">
        <lane id=":n_4_1_4_0" index="0" speed="7.33" length="9.21" shape="601.05,148.45 599.40,150.20 596.65,151.25 592.80,151.60"/>
    </edge>
    <edge id=":n_4_2_0" function="internal">
        <lane id=":n_4_2_0_0" index="0" speed="6.51" length="9.03" shape="598.40,307.20 598.05,304.75 597.00,303.00 595.25,301.95 592.80,301.60"/>
    </edge>
    <edge id=":n_4_2_1" function="internal">
        <lane id=":n_4_2_1_0" index="0" speed="13.89" length="14.40" shape="598.40,307.20 598.40,292.80"/>
    </edge>
    <edge id=":n_4_2_2" function="internal">
        <lane id=":n_4_2_2_0" index="0" speed="13.89" length="14.40" shape="601.60,292.80 601.60,307.20"/>
    </edge>
    <edge id=":n_4_2_3" function="internal">
        <lane id=":n_4_2_3_0" index="0" speed="8.00" length="4.07" shape="601.60,292.80 601.05,296.65 600.96,296.80"/>
    </edge>
    <edge id=":n_4_2_6" function="internal">
        <lane id=":n_4_2_6_0" index="0" speed="8.00" length="10.13" shape="600.96,296.80 599.40,299.40 596.65,301.05 592.80,301.60"/>
    </edge>
    <edge id=":n_4_2_4" function="internal">
        <lane id=":n_4_2_4_0" index="0" speed="6.51" length="9.03" shape="592.80,298.40 595.25,298.05 597.00,297.00 598.05,295.25 598.40,292.80"/>
    </edge>
    <edge id=":n_4_2_5" function="internal">
        <lane id=":n_4_2_5_0" index="0" speed="8.00" length="14.19" shape="592.80,298.40 596.65,298.95 599.40,300.60 601.05,303.35 601.60,307.20"/>
    </edge>
    <edge id=":n_4_3_0" function="internal">
        <lane id=":n_4_3_0_0" index="0" speed="6.51" length="9.03" shape="598.40,457.20 598.05,454.75 597.00,453.00 595.25,451.95 592.80,451.60"/>
    </edge>
    <edge id=":n_4_3_1" function="internal">
        <lane id=":n_4_3_1_0" index="0" speed="13.89" length="14.40" shape="598.40,457.20 598.40,442.80"/>
    </edge>
    <edge id=":n_4_3_2" function="internal">
        <lane id=":n_4_3_2_0" index="0" speed="13.89" length="14.40" shape="601.60,442.80 601.60,457.20"/>
    </edge>
    <edge id=":n_4_3_3" function="internal">
        <lane id=":n_4_3_3_0" index="0" speed="8.00" length="4.07" shape="601.60,442.80 601.05,446.65 600.96,446.80"/>
    </edge>
    <edge id=":n_4_3_6" function="internal">
        <lane id=":n_4_3_6_0" index="0" speed="8.00" length="10.13" shape="600.96,446.80 599.40,449.40 596.65,451.05 592.80,451.60"/>
    </edge>
    <edge id=":n_4_3_4" function="internal">
        <lane id=":n_4_3_4_0" index="0" speed="6.51" length="9.03" shape="592.80,448.40 595.25,448.05 597.00,447.00 598.05,445.25 598.40,442.80"/>
    </edge>
    <edge id=":n_4_3_5" function="internal">
        <lane id=":n_4_3_5_0" index="0" speed="8.00" length="14.19" shape="592.80,448.40 596.65,448.95 599.40,450.60 601.05,453.35 601.60,457.20"/>
    </edge>
    <edge id=":n_4_4_0" function="internal">
        <lane id=":n_4_4_0_0" index="0" speed="6.51" length="9.03" shape="592.80,598.40 595.25,598.05 597.00,597.00 598.05,595.25 598.40,592.80"/>
    </edge>

    <edge id="E_n_0_0_n_0_1" from="n_0_0" to="n_0_1" priority="1">
        <lane id="E_n_0_0_n_0_1_0" index="0" speed="8.33" length="144.50" shape="1.60,1.50 1.60,146.00"/>
    </edge>
    <edge id="E_n_0_0_n_1_0" from="n_0_0" to="n_1_0" priority="1">
        <lane id="E_n_0_0_n_1_0_0" index="0" speed="8.33" length="138.10" shape="4.70,-1.60 142.80,-1.60"/>
    </edge>
    <edge id="E_n_0_1_n_0_2" from="n_0_1" to="n_0_2" priority="1">
        <lane id="E_n_0_1_n_0_2_0" index="0" speed="8.33" length="135.60" shape="1.60,157.20 1.60,292.80"/>
    </edge>
    <edge id="E_n_0_2_n_0_3" from="n_0_2" to="n_0_3" priority="1">
        <lane id="E_n_0_2_n_0_3_0" index="0" speed="8.33" length="135.60" shape="1.60,307.20 1.60,442.80"/>
    </edge>
    <edge id="E_n_0_2_n_1_2" from="n_0_2" to="n_1_2" priority="2">
        <lane id="E_n_0_2_n_1_2_0" index="0" speed="13.89" length="135.60" shape="7.20,298.40 142.80,298.40"/>
    </edge>
    <edge id="E_n_0_3_n_0_4" from="n_0_3" to="n_0_4" priority="1">
        <lane id="E_n_0_3_n_0_4_0" index="0" speed="8.33" length="139.60" shape="1.60,457.20 1.60,596.80"/>
    </edge>
    <edge id="E_n_0_3_n_1_3" from="n_0_3" to="n_1_3" priority="2">
        <lane id="E_n_0_3_n_1_3_0" index="0" speed="13.89" length="135.60" shape="7.20,448.40 142.80,448.40"/>
    </edge>
    <edge id="E_n_0_4_n_1_4" from="n_0_4" to="n_1_4" priority="1">
        <lane id="E_n_0_4_n_1_4_0" index="0" speed="8.33" length="139.60" shape="3.20,598.40 142.80,598.40"/>
    </edge>
    <edge id="E_n_1_0_n_2_0" from="n_1_0" to="n_2_0" priority="1">
        <lane id="E_n_1_0_n_2_0_0" index="0" speed="8.33" length="141.30" shape="154.00,-1.60 295.30,-1.60"/>
    </edge>
    <edge id="E_n_1_1_n_0_1" from="n_1_1" to="n_0_1" priority="1">
        <lane id="E_n_1_1_n_0_1_0" index="0" speed="8.33" length="135.60" shape="142.80,151.60 7.20,151.60"/>
    </edge>
    <edge id="E_n_1_1_n_1_0" from="n_1_1" to="n_1_0" priority="1">
        <lane id="E_n_1_1_n_1_0_0" index="0" speed="8.33" length="142.00" shape="148.40,146.00 148.40,4.00"/>
    </edge>
    <edge id="E_n_1_2_n_0_2" from="n_1_2" to="n_0_2" priority="2">
        <lane id="E_n_1_2_n_0_2_0" index="0" speed="13.89" length="135.60" shape="142.80,301.60 7.20,301.60"/>
    </edge>
    <edge id="E_n_1_2_n_1_1" from="n_1_2" to="n_1_1" priority="1">
        <lane id="E_n_1_2_n_1_1_0" index="0" speed="8.33" length="135.60" shape="148.40,292.80 148.40,157.20"/>
    </edge>
    <edge id="E_n_1_2_n_2_2" from="n_1_2" to="n_2_2" priority="2">
        <lane id="E_n_1_2_n_2_2_0" index="0" speed="13.89" length="138.80" shape="154.00,298.40 292.80,298.40"/>
    </edge>
    <edge id="E_n_1_3_n_0_3" from="n_1_3" to="n_0_3" priority="2">
        <lane id="E_n_1_3_n_0_3_0" index="0" speed="13.89" length="135.60" shape="142.80,451.60 7.20,451.60"/>
    </edge>
    <edge id="E_n_1_3_n_1_2" from="n_1_3" to="n_1_2" priority="1">
        <lane id="E_n_1_3_n_1_2_0" index="0" speed="8.33" length="135.60" shape="148.40,442.80 148.40,307.20"/>
    </edge>
    <edge id="E_n_1_3_n_2_3" from="n_1_3" to="n_2_3" priority="2">
        <lane id="E_n_1_3_n_2_3_0" index="0" speed="13.89" length="138.80" shape="154.00,448.40 292.80,448.40"/>
    </edge>
    <edge id="E_n_1_4_n_1_3" from="n_1_4" to="n_1_3" priority="1">
        <lane id="E_n_1_4_n_1_3_0" index="0" speed="8.33" length="135.60" shape="148.40,592.80 148.40,457.20"/>
    </edge>
    <edge id="E_n_1_4_n_2_4" from="n_1_4" to="n_2_4" priority="1">
        <lane id="E_n_1_4_n_2_4_0" index="0" speed="8.33" length="138.80" shape="154.00,598.40 292.80,598.40"/>
    </edge>
    <edge id="E_n_2_0_n_2_1" from="n_2_0" to="n_2_1" priority="2">
        <lane id="E_n_2_0_n_2_1_0" index="0" speed="13.89" length="144.50" shape="301.60,1.50 301.60,146.00"/>
    </edge>
    <edge id="E_n_2_0_n_3_0" from="n_2_0" to="n_3_0" priority="1">
        <lane id="E_n_2_0_n_3_0_0" index="0" speed="8.33" length="138.10" shape="304.70,-1.60 442.80,-1.60"/>
    </edge>
    <edge id="E_n_2_1_n_1_1" from="n_2_1" to="n_1_1" priority="1">
        <lane id="E_n_2_1_n_1_1_0" index="0" speed="8.33" length="138.80" shape="292.80,151.60 154.00,151.60"/>
    </edge>
    <edge id="E_n_2_1_n_2_0" from="n_2_1" to="n_2_0" priority="2">
        <lane id="E_n_2_1_n_2_0_0" index="0" speed="13.89" length="144.50" shape="298.40,146.00 298.40,1.50"/>
    </edge>
    <edge id="E_n_2_1_n_2_2" from="n_2_1" to="n_2_2" priority="2">
        <lane id="E_n_2_1_n_2_2_0" index="0" speed="13.89" length="135.60" shape="301.60,157.20 301.60,292.80"/>
    </edge>
    <edge id="E_n_2_2_n_1_2" from="n_2_2" to="n_1_2" priority="2">
        <lane id="E_n_2_2_n_1_2_0" index="0" speed="13.89" length="138.80" shape="292.80,301.60 154.00,301.60"/>
    </edge>
    <edge id="E_n_2_2_n_2_1" from="n_2_2" to="n_2_1" priority="2">
        <lane id="E_n_2_2_n_2_1_0" index="0" speed="13.89" length="135.60" shape="298.40,292.80 298.40,157.20"/>
    </edge>
    <edge id="E_n_2_2_n_2_3" from="n_2_2" to="n_2_3" priority="2">
        <lane id="E_n_2_2_n_2_3_0" index="0" speed="13.89" length="135.60" shape="301.60,307.20 301.60,442.80"/>
    </edge>
    <edge id="E_n_2_2_n_3_2" from="n_2_2" to="n_3_2" priority="2">
        <lane id="E_n_2_2_n_3_2_0" index="0" speed="13.89" length="135.60" shape="307.20,298.40 442.80,298.40"/>
    </edge>
    <edge id="E_n_2_3_n_1_3" from="n_2_3" to="n_1_3" priority="2">
        <lane id="E_n_2_3_n_1_3_0" index="0" speed="13.89" length="138.80" shape="292.80,451.60 154.00,451.60"/>
    </edge>
    <edge id="E_n_2_3_n_2_2" from="n_2_3" to="n_2_2" priority="2">
        <lane id="E_n_2_3_n_2_2_0" index="0" speed="13.89" length="135.60" shape="298.40,442.80 298.40,307.20"/>
    </edge>
    <edge id="E_n_2_3_n_2_4" from="n_2_3" to="n_2_4" priority="2">
        <lane id="E_n_2_3_n_2_4_0" index="0" speed="13.89" length="135.60" shape="301.60,457.20 301.60,592.80"/>
    </edge>
    <edge id="E_n_2_3_n_3_3" from="n_2_3" to="n_3_3" priority="2">
        <lane id="E_n_2_3_n_3_3_0" index="0" speed="13.89" length="135.60" shape="307.20,448.40 442.80,448.40"/>
    </edge>
    <edge id="E_n_2_4_n_2_3" from="n_2_4" to="n_2_3" priority="2">
        <lane id="E_n_2_4_n_2_3_0" index="0" speed="13.89" length="135.60" shape="298.40,592.80 298.40,457.20"/>