<?xml version="1.0" encoding="UTF-8"?>

<!-- generated on 2026-04-30 18:25:14.417359 by Eclipse SUMO randomTrips.py v1.26.0
<configuration>
    <net-file value="scenarios/autonomous/autonomous.net.xml"/>
    <output-trip-file value="scenarios/autonomous/autonomous.trips.xml"/>
    <route-file value="scenarios/autonomous/autonomous.rou.xml"/>
    <seed value="597394"/>
    <end value="100.0"/>
    <period value="2.0"/>
</configuration>
-->

<routes xmlns:xsi="http://www.w3.org/2001/XMLSchema-instance" xsi:noNamespaceSchemaLocation="http://sumo.dlr.de/xsd/routes_file.xsd">
    <trip id="0" depart="0.00" from="E_n_2_0_n_3_0" to="E_n_2_2_n_2_3"/>
    <trip id="1" depart="2.00" from="E_n_1_1_n_0_1" to="E_n_0_4_n_1_4"/>
    <trip id="2" depart="4.00" from="E_n_1_3_n_2_3" to="E_n_2_2_n_2_3"/>
    <trip id="3" depart="6.00" from="E_n_1_4_n_1_3" to="E_n_1_1_n_1_2"/>
    <trip id="4" depart="8.00" from="E_n_0_2_n_1_2" to="E_n_1_4_n_2_4"/>
    <trip id="5" depart="10.00" from="E_n_4_0_n_4_1" to="E_n_1_0_n_1_1"/>
    <trip id="6" depart="12.00" from="E_n_1_2_n_1_3" to="E_n_1_2_n_1_3"/>
    <trip id="7" depart="14.00" from="E_n_3_1_n_3_0" to="E_n_4_1_n_4_2"/>
    <trip id="8" depart="16.00" from="E_n_1_2_n_1_1" to="E_n_3_3_n_3_4"/>
    <trip id="9" depart="18.00" from="E_n_3_0_n_4_0" to="E_n_2_2_n_2_3"/>
    <trip id="10" depart="20.00" from="E_n_1_0_n_0_0" to="E_n_3_2_n_4_2"/>
    <trip id="11" depart="22.00" from="E_n_1_2_n_2_2" to="E_n_1_0_n_0_0"/>
    <trip id="12" depart="24.00" from="E_n_1_4_n_1_3" to="E_n_3_0_n_3_1"/>
    <trip id="13" depart="26.00" from="E_n_3_2_n_4_2" to="E_n_3_3_n_2_3"/>
    <trip id="14" depart="28.00" from="E_n_2_4_n_3_4" to="E_n_2_0_n_2_1"/>
    <trip id="15" depart="30.00" from="E_n_2_1_n_2_2" to="E_n_2_0_n_3_0"/>
    <trip id="16" depart="32.00" from="E_n_0_0_n_0_1" to="E_n_1_1_n_1_2"/>
    <trip id="17" depart="34.00" from="E_n_0_0_n_0_1" to="E_n_1_3_n_2_3"/>
    <trip id="18" depart="36.00" from="E_n_3_0_n_2_0" to="E_n_1_2_n_1_1"/>
    <trip id="19" depart="38.00" from="E_n_1_0_n_0_0" to="E_n_3_2_n_3_1"/>
    <trip id="20" depart="40.00" from="E_n_3_1_n_3_0" to="E_n_4_0_n_4_1"/>
    <trip id="21" depart="42.00" from="E_n_4_1_n_3_1" to="E_n_3_0_n_4_0"/>
    <trip id="22" depart="44.00" from="E_n_2_0_n_1_0" to="E_n_2_3_n_1_3"/>
    <trip id="23" depart="46.00" from="E_n_1_1_n_0_1" to="E_n_3_3_n_3_4"/>
    <trip id="24" depart="48.00" from="E_n_1_0_n_2_0" to="E_n_3_2_n_3_1"/>
    <trip id="25" depart="50.00" from="E_n_1_1_n_1_2" to="E_n_4_1_n_4_2"/>
    <trip id="26" depart="52.00" from="E_n_0_3_n_1_3" to="E_n_0_4_n_1_4"/>
    <trip id="27" depart="54.00" from="E_n_2_0_n_1_0" to="E_n_3_3_n_4_3"/>
    <trip id="28" depart="56.00" from="E_n_3_2_n_3_1" to="E_n_3_0_n_3_1"/>
    <trip id="29" depart="58.00" from="E_n_1_3_n_1_4" to="E_n_1_2_n_2_2"/>
    <trip id="30" depart="60.00" from="E_n_1_3_n_2_3" to="E_n_1_3_n_1_2"/>
    <trip id="31" depart="62.00" from="E_n_0_3_n_0_4" to="E_n_3_2_n_4_2"/>
    <trip id="32" depart="64.00" from="E_n_3_3_n_3_2" to="E_n_0_3_n_0_4"/>
    <trip id="33" depart="66.00" from="E_n_3_1_n_3_2" to="E_n_2_0_n_3_0"/>
    <trip id="34" depart="68.00" from="E_n_1_4_n_1_3" to="E_n_3_1_n_2_1"/>
    <trip id="35" depart="70.00" from="E_n_1_1_n_0_1" to="E_n_0_0_n_0_1"/>
    <trip id="36" depart="72.00" from="E_n_3_0_n_2_0" to="E_n_3_0_n_2_0"/>
    <trip id="37" depart="74.00" from="E_n_4_0_n_4_1" to="E_n_4_3_n_4_4"/>
    <trip id="38" depart="76.00" from="E_n_1_4_n_1_3" to="E_n_0_1_n_0_2"/>
    <trip id="39" depart="78.00" from="E_n_2_0_n_3_0" to="E_n_0_3_n_1_3"/>
    <trip id="40" depart="80.00" from="E_n_4_3_n_3_3" to="E_n_2_3_n_1_3"/>
    <trip id="41" depart="82.00" from="E_n_0_0_n_1_0" to="E_n_3_3_n_4_3"/>
    <trip id="42" depart="84.00" from="E_n_2_3_n_2_4" to="E_n_0_2_n_0_3"/>
    <trip id="43" depart="86.00" from="E_n_1_3_n_1_2" to="E_n_3_0_n_4_0"/>
    <trip id="44" depart="88.00" from="E_n_3_0_n_3_1" to="E_n_1_2_n_2_2"/>
    <trip id="45" depart="90.00" from="E_n_2_2_n_3_2" to="E_n_2_2_n_2_3"/>
    <trip id="46" depart="92.00" from="E_n_1_0_n_1_1" to="E_n_3_0_n_3_1"/>
    <trip id="47" depart="94.00" from="E_n_1_0_n_1_1" to="E_n_0_1_n_0_2"/>
    <trip id="48" depart="96.00" from="E_n_3_0_n_3_1" to="E_n_0_2_n_0_3"/>
    <trip id="49" depart="98.00" from="E_n_1_3_n_1_2" to="E_n_1_0_n_0_0"/>
</routes>
