<?xml version="1.0" encoding="UTF-8"?>

<!-- generated on 2026-04-28T20:46:09.997941+01:00 by Eclipse SUMO netgenerate 1.26.0
<netgenerateConfiguration xmlns:xsi="http://www.w3.org/2001/XMLSchema-instance" xsi:noNamespaceSchemaLocation="http://sumo.dlr.de/xsd/netgenerateConfiguration.xsd">

    <random_network>
        <rand value="true"/>
        <rand.iterations value="40"/>
        <rand.max-distance value="600"/>
        <rand.min-distance value="200"/>
    </random_network>

    <output>
        <output-file value="scenarios/interurban/interurban.net.xml"/>
    </output>

    <processing>
        <bidi-probability value="1.0"/>
    </processing>

    <building_defaults>
        <default.lanenumber value="1"/>
        <default.speed value="25.0"/>
    </building_defaults>

    <junctions>
        <no-turnarounds value="true"/>
    </junctions>

    <random_number>
        <seed value="26950"/>
    </random_number>

</netgenerateConfiguration>
-->

<net version="1.20" junctionCornerDetail="5" limitTurnSpeed="5.50" xmlns:xsi="http://www.w3.org/2001/XMLSchema-instance" xsi:noNamespaceSchemaLocation="http://sumo.dlr.de/xsd/net_file.xsd">

    <location netOffset="1083.50,1808.41" convBoundary="0.00,0.00,2504.67,3393.89" origBoundary="-1083.50,-1808.41,1421.16,1585.49" projParameter="!"/>

    <edge id=":1_0" function="internal">
        <lane id=":1_0_0" index="0" speed="11.05" length="16.43" shape="1092.90,1807.50 1089.19,1809.05 1086.17,1811.47 1083.83,1814.78 1082.19,1818.96"/>
    </edge>
    <edge id=":1_1" function="internal">
        <lane id=":1_1_0" index="0" speed="25.00" length="19.60" shape="1092.90,1807.50 1088.62,1808.78 1083.55,1810.45 1078.52,1812.22 1074.34,1813.81"/>
    </edge>
    <edge id=":1_2" function="internal">
        <lane id=":1_2_0" index="0" speed="7.42" length="16.54" shape="1092.90,1807.50 1088.01,1808.15 1084.90,1806.95 1083.54,1803.89 1083.96,1798.98"/>
    </edge>
    <edge id=":1_3" function="internal">
        <lane id=":1_3_0" index="0" speed="5.71" length="9.20" shape="1087.08,1799.67 1086.85,1802.41 1087.60,1804.11 1089.34,1804.78 1092.06,1804.42"/>
    </edge>
    <edge id=":1_4" function="internal">
        <lane id=":1_4_0" index="0" speed="25.00" length="19.90" shape="1087.08,1799.67 1082.19,1818.96"/>
    </edge>
    <edge id=":1_5" function="internal">
        <lane id=":1_5_0" index="0" speed="12.49" length="5.55" shape="1087.08,1799.67 1085.37,1803.68 1084.65,1804.63"/>
    </edge>
    <edge id=":1_12" function="internal">
        <lane id=":1_12_0" index="0" speed="12.49" length="13.97" shape="1084.65,1804.63 1082.28,1807.81 1078.40,1811.41 1074.34,1813.81"/>
    </edge>
    <edge id=":1_6" function="internal">
        <lane id=":1_6_0" index="0" speed="11.58" length="16.71" shape="1073.15,1810.84 1077.19,1808.75 1080.34,1806.08 1082.59,1802.82 1083.96,1798.98"/>
    </edge>
    <edge id=":1_7" function="internal">
        <lane id=":1_7_0" index="0" speed="25.00" length="19.97" shape="1073.15,1810.84 1077.38,1809.24 1082.53,1807.42 1087.72,1805.71 1092.06,1804.42"/>
    </edge>
    <edge id=":1_8" function="internal">
        <lane id=":1_8_0" index="0" speed="7.38" length="17.89" shape="1073.15,1810.84 1078.51,1809.43 1081.80,1810.31 1083.02,1813.48 1082.19,1818.96"/>
    </edge>
    <edge id=":1_9" function="internal">
        <lane id=":1_9_0" index="0" speed="5.55" length="9.43" shape="1079.11,1818.09 1079.55,1815.20 1078.90,1813.53 1077.17,1813.06 1074.34,1813.81"/>
    </edge>
    <edge id=":1_10" function="internal">
        <lane id=":1_10_0" index="0" speed="25.00" length="19.72" shape="1079.11,1818.09 1083.96,1798.98"/>
    </edge>
    <edge id=":1_11" function="internal">
        <lane id=":1_11_0" index="0" speed="11.97" length="5.33" shape="1079.11,1818.09 1081.09,1813.82 1081.48,1813.33"/>
    </edge>
    <edge id=":1_13" function="internal">
        <lane id=":1_13_0" index="0" speed="11.97" length="14.05" shape="1081.48,1813.33 1084.32,1809.70 1088.17,1806.35 1092.06,1804.42"/>
    </edge>
    <edge id=":102_0" function="internal">
        <lane id=":102_0_0" index="0" speed="6.23" length="10.10" shape="1350.81,3076.77 1349.46,3074.54 1347.66,3073.63 1345.41,3074.03 1342.71,3075.74"/>
    </edge>
    <edge id=":102_1" function="internal">
        <lane id=":102_1_0" index="0" speed="12.21" length="15.60" shape="1350.81,3076.77 1349.07,3073.47 1346.61,3070.68 1343.45,3068.40 1339.58,3066.64"/>
    </edge>
    <edge id=":102_2" function="internal">
        <lane id=":102_2_0" index="0" speed="25.00" length="18.28" shape="1350.81,3076.77 1349.39,3072.75 1347.97,3068.09 1346.70,3063.38 1345.73,3059.23"/>
    </edge>
    <edge id=":102_3" function="internal">
        <lane id=":102_3_0" index="0" speed="25.00" length="17.73" shape="1348.87,3058.58 1349.81,3062.65 1351.02,3067.18 1352.40,3071.66 1353.79,3075.60"/>
    </edge>
    <edge id=":102_4" function="internal">
        <lane id=":102_4_0" index="0" speed="11.47" length="4.82" shape="1348.87,3058.58 1349.27,3063.39"/>
    </edge>
    <edge id=":102_5" function="internal">
        <lane id=":102_5_0" index="0" speed="7.40" length="4.52" shape="1348.87,3058.58 1349.19,3063.09"/>
    </edge>
    <edge id=":102_12" function="internal">
        <lane id=":102_12_0" index="0" speed="11.47" length="14.41" shape="1349.27,3063.39 1349.29,3063.57 1348.40,3068.09 1346.21,3072.15 1342.71,3075.74"/>
    </edge>
    <edge id=":102_13" function="internal">
        <lane id=":102_13_0" index="0" speed="7.40" length="12.45" shape="1349.19,3063.09 1349.23,3063.69 1347.81,3066.73 1344.59,3067.71 1339.58,3066.64"/>
    </edge>
    <edge id=":102_6" function="internal">
        <lane id=":102_6_0" index="0" speed="5.65" length="9.28" shape="1340.65,3063.62 1343.39,3064.21 1345.15,3063.68 1345.93,3062.01 1345.73,3059.23"/>
    </edge>
    <edge id=":102_7" function="internal">
        <lane id=":102_7_0" index="0" speed="13.21" length="18.34" shape="1340.65,3063.62 1345.16,3065.69 1348.85,3068.37 1351.73,3071.67 1353.79,3075.60"/>
    </edge>
    <edge id=":102_8" function="internal">
        <lane id=":102_8_0" index="0" speed="7.40" length="16.98" shape="1340.65,3063.62 1345.21,3065.96 1347.08,3068.76 1346.24,3072.02 1342.71,3075.74"/>
    </edge>
    <edge id=":102_9" function="internal">
        <lane id=":102_9_0" index="0" speed="5.64" length="9.27" shape="1340.70,3073.25 1342.63,3071.22 1343.08,3069.44 1342.07,3067.91 1339.58,3066.64"/>
    </edge>
    <edge id=":102_10" function="internal">
        <lane id=":102_10_0" index="0" speed="10.41" length="15.72" shape="1340.70,3073.25 1343.56,3070.31 1345.35,3067.00 1346.08,3063.30 1345.73,3059.23"/>
    </edge>
    <edge id=":102_11" function="internal">
        <lane id=":102_11_0" index="0" speed="7.79" length="16.51" shape="1340.70,3073.25 1344.98,3070.59 1348.59,3070.10 1351.53,3071.77 1353.79,3075.60"/>
    </edge>
    <edge id=":109_0" function="internal">
        <lane id=":109_0_0" index="0" speed="15.58" length="17.36" shape="1712.37,2117.19 1709.31,2119.94 1705.49,2122.46 1701.38,2124.44 1697.44,2125.58"/>
    </edge>
    <edge id=":109_1" function="internal">
        <lane id=":109_1_0" index="0" speed="7.47" length="5.68" shape="1712.37,2117.19 1708.73,2120.20 1707.79,2120.39"/>
    </edge>
    <edge id=":109_6" function="internal">
        <lane id=":109_6_0" index="0" speed="7.47" length="10.42" shape="1707.79,2120.39 1705.47,2120.87 1702.61,2119.18 1700.13,2115.15"/>
    </edge>
    <edge id=":109_2" function="internal">
        <lane id=":109_2_0" index="0" speed="5.79" length="9.15" shape="1703.06,2113.87 1704.47,2116.16 1706.10,2117.11 1707.95,2116.74 1710.02,2115.03"/>
    </edge>
    <edge id=":109_3" function="internal">
        <lane id=":109_3_0" index="0" speed="7.77" length="15.83" shape="1703.06,2113.87 1704.36,2118.37 1703.85,2121.82 1701.55,2124.22 1697.44,2125.58"/>
    </edge>
    <edge id=":109_4" function="internal">
        <lane id=":109_4_0" index="0" speed="6.21" length="9.68" shape="1696.91,2122.43 1699.35,2121.60 1700.70,2120.11 1700.96,2117.96 1700.13,2115.15"/>
    </edge>
    <edge id=":109_5" function="internal">
        <lane id=":109_5_0" index="0" speed="14.64" length="15.30" shape="1696.91,2122.43 1700.56,2121.44 1704.04,2119.80 1707.24,2117.62 1710.02,2115.03"/>
    </edge>
    <edge id=":12_0" function="internal">
        <lane id=":12_0_0" index="0" speed="11.72" length="19.55" shape="1337.64,1729.74 1335.84,1735.03 1333.25,1739.17 1329.86,1742.16 1325.68,1743.98"/>
    </edge>
    <edge id=":12_1" function="internal">
        <lane id=":12_1_0" index="0" speed="7.39" length="7.50" shape="1337.64,1729.74 1335.62,1735.24 1334.36,1736.29"/>
    </edge>
    <edge id=":12_6" function="internal">
        <lane id=":12_6_0" index="0" speed="7.39" length="11.10" shape="1334.36,1736.29 1332.98,1737.44 1329.71,1736.36 1325.82,1731.99"/>
    </edge>
    <edge id=":12_2" function="internal">
        <lane id=":12_2_0" index="0" speed="5.50" length="9.58" shape="1328.44,1730.15 1330.44,1732.41 1332.13,1732.96 1333.49,1731.83 1334.53,1729.00"/>
    </edge>
    <edge id=":12_3" function="internal">
        <lane id=":12_3_0" index="0" speed="7.95" length="17.65" shape="1328.44,1730.15 1331.14,1735.14 1331.59,1739.10 1329.76,1742.05 1325.68,1743.98"/>
    </edge>
    <edge id=":12_4" function="internal">
        <lane id=":12_4_0" index="0" speed="6.43" length="11.09" shape="1324.84,1740.90 1327.17,1739.72 1328.11,1737.84 1327.66,1735.26 1325.82,1731.99"/>
    </edge>
    <edge id=":12_5" function="internal">
        <lane id=":12_5_0" index="0" speed="10.68" length="16.12" shape="1324.84,1740.90 1328.19,1739.40 1330.92,1736.92 1333.04,1733.45 1334.53,1729.00"/>
    </edge>
    <edge id=":124_0" function="internal">
        <lane id=":124_0_0" index="0" speed="5.50" length="9.60" shape="1556.06,1786.09 1554.54,1783.48 1553.00,1782.60 1551.45,1783.46 1549.89,1786.05"/>
    </edge>
    <edge id=":124_1" function="internal">
        <lane id=":124_1_0" index="0" speed="11.29" length="17.28" shape="1556.06,1786.09 1554.19,1780.89 1553.40,1776.40 1553.72,1772.61 1555.13,1769.53"/>
    </edge>
    <edge id=":124_2" function="internal">
        <lane id=":124_2_0" index="0" speed="10.20" length="13.99" shape="1557.73,1771.39 1556.74,1773.72 1556.62,1776.74 1557.37,1780.43 1559.00,1784.80"/>
    </edge>
    <edge id=":124_3" function="internal">
        <lane id=":124_3_0" index="0" speed="25.00" length="16.65" shape="1557.73,1771.39 1555.57,1774.75 1553.49,1778.54 1551.57,1782.41 1549.89,1786.05"/>
    </edge>
    <edge id=":124_4" function="internal">
        <lane id=":124_4_0" index="0" speed="25.00" length="17.28" shape="1546.97,1784.74 1548.71,1781.01 1550.73,1776.95 1552.91,1772.98 1555.13,1769.53"/>
    </edge>
    <edge id=":124_5" function="internal">
        <lane id=":124_5_0" index="0" speed="7.40" length="5.89" shape="1546.97,1784.74 1550.01,1779.68"/>
    </edge>
    <edge id=":124_6" function="internal">
        <lane id=":124_6_0" index="0" speed="7.40" length="12.79" shape="1550.01,1779.68 1553.02,1778.01 1556.02,1779.72 1559.00,1784.80"/>
    </edge>
    <edge id=":127_0" function="internal">
        <lane id=":127_0_0" index="0" speed="6.67" length="10.33" shape="1268.65,541.08 1266.04,540.86 1264.02,541.70 1262.59,543.63 1261.76,546.63"/>
    </edge>
    <edge id=":127_1" function="internal">
        <lane id=":127_1_0" index="0" speed="17.99" length="15.49" shape="1268.65,541.08 1264.90,540.42 1260.99,540.31 1257.08,540.68 1253.33,541.49"/>
    </edge>
    <edge id=":127_2" function="internal">
        <lane id=":127_2_0" index="0" speed="7.73" length="14.88" shape="1268.65,541.08 1264.80,539.45 1262.63,537.03 1262.13,533.81 1263.30,529.79"/>
    </edge>
    <edge id=":127_3" function="internal">
        <lane id=":127_3_0" index="0" speed="6.17" length="9.05" shape="1266.22,531.12 1265.50,533.56 1265.80,535.52 1267.13,537.00 1269.47,537.99"/>
    </edge>
    <edge id=":127_4" function="internal">
        <lane id=":127_4_0" index="0" speed="25.00" length="16.18" shape="1266.22,531.12 1264.75,534.77 1263.49,538.73 1262.48,542.76 1261.76,546.63"/>
    </edge>
    <edge id=":127_5" function="internal">
        <lane id=":127_5_0" index="0" speed="12.51" length="4.18" shape="1266.22,531.12 1264.11,534.20 1263.78,534.51"/>
    </edge>
    <edge id=":127_12" function="internal">
        <lane id=":127_12_0" index="0" speed="12.51" length="12.69" shape="1263.78,534.51 1260.86,537.27 1257.06,539.87 1253.33,541.49"/>
    </edge>
    <edge id=":127_6" function="internal">
        <lane id=":127_6_0" index="0" speed="11.55" length="14.29" shape="1252.47,538.40 1256.11,537.04 1259.13,535.15 1261.53,532.74 1263.30,529.79"/>
    </edge>
    <edge id=":127_7" function="internal">
        <lane id=":127_7_0" index="0" speed="18.92" length="17.15" shape="1252.47,538.40 1256.48,537.59 1260.96,537.22 1265.45,537.33 1269.47,537.99"/>
    </edge>
    <edge id=":127_8" function="internal">
        <lane id=":127_8_0" index="0" speed="7.46" length="16.14" shape="1252.47,538.40 1257.18,537.77 1260.29,538.93 1261.82,541.89 1261.76,546.63"/>
    </edge>
    <edge id=":127_9" function="internal">
        <lane id=":127_9_0" index="0" speed="5.79" length="9.15" shape="1258.59,546.15 1258.63,543.46 1257.76,541.79 1256.00,541.13 1253.33,541.49"/>
    </edge>
    <edge id=":127_10" function="internal">
        <lane id=":127_10_0" index="0" speed="25.00" length="17.07" shape="1258.59,546.15 1259.35,542.15 1260.45,537.82 1261.80,533.57 1263.30,529.79"/>
    </edge>
    <edge id=":127_11" function="internal">
        <lane id=":127_11_0" index="0" speed="7.87" length="5.22" shape="1258.59,546.15 1259.96,542.82 1261.07,541.64"/>
    </edge>
    <edge id=":127_13" function="internal">
        <lane id=":127_13_0" index="0" speed="7.87" length="9.59" shape="1261.07,541.64 1262.64,539.96 1266.02,538.15 1269.47,537.99"/>
    </edge>
    <edge id=":131_0" function="internal">
        <lane id=":131_0_0" index="0" speed="6.08" length="7.78" shape="1105.23,1258.09 1104.30,1260.00 1102.97,1261.16 1101.26,1261.54 1099.16,1261.17"/>
    </edge>
    <edge id=":131_1" function="internal">
        <lane id=":131_1_0" index="0" speed="3.90" length="2.59" shape="1100.16,1258.13 1100.86,1258.25 1101.44,1258.13 1101.88,1257.74 1102.19,1257.10"/>
    </edge>
    <edge id=":141_0" function="internal">
        <lane id=":141_0_0" index="0" speed="10.06" length="13.37" shape="715.72,800.87 711.54,799.59 708.00,799.12 705.10,799.43 702.86,800.55"/>
    </edge>
    <edge id=":141_1" function="internal">
        <lane id=":141_1_0" index="0" speed="7.38" length="17.90" shape="715.72,800.87 710.80,798.32 708.96,795.45 710.19,792.28 714.50,788.79"/>
    </edge>
    <edge id=":141_2" function="internal">
        <lane id=":141_2_0" index="0" speed="5.55" length="9.43" shape="716.19,791.50 713.92,793.34 713.27,795.01 714.24,796.52 716.84,797.87"/>
    </edge>
    <edge id=":141_3" function="internal">
        <lane id=":141_3_0" index="0" speed="25.00" length="16.12" shape="716.19,791.50 712.87,793.60 709.41,795.86 706.00,798.20 702.86,800.55"/>
    </edge>
    <edge id=":141_4" function="internal">
        <lane id=":141_4_0" index="0" speed="25.00" length="16.47" shape="700.88,798.04 704.07,795.66 707.57,793.24 711.13,790.91 714.50,788.79"/>
    </edge>
    <edge id=":141_5" function="internal">
        <lane id=":141_5_0" index="0" speed="11.17" length="3.65" shape="700.88,798.04 703.85,796.47 704.14,796.43"/>
    </edge>
    <edge id=":141_6" function="internal">
        <lane id=":141_6_0" index="0" speed="11.17" length="12.98" shape="704.14,796.43 707.50,795.92 711.83,796.39 716.84,797.87"/>
    </edge>
    <edge id=":145_0" function="internal">
        <lane id=":145_0_0" index="0" speed="6.00" length="9.08" shape="1826.23,794.88 1824.34,793.10 1822.48,792.54 1820.65,793.20 1818.85,795.07"/>
    </edge>
    <edge id=":145_1" function="internal">
        <lane id=":145_1_0" index="0" speed="25.00" length="14.93" shape="1826.23,794.88 1823.79,792.04 1821.16,789.40 1818.32,786.99 1815.27,784.84"/>
    </edge>
    <edge id=":145_2" function="internal">
        <lane id=":145_2_0" index="0" speed="25.00" length="15.98" shape="1816.99,782.14 1820.16,784.40 1823.27,787.06 1826.17,789.94 1828.73,792.89"/>
    </edge>
    <edge id=":145_3" function="internal">
        <lane id=":145_3_0" index="0" speed="8.07" length="4.37" shape="1816.99,782.14 1819.97,784.78 1820.13,785.13"/>
    </edge>
    <edge id=":145_6" function="internal">
        <lane id=":145_6_0" index="0" speed="8.07" length="10.71" shape="1820.13,785.13 1821.28,787.81 1820.90,791.24 1818.85,795.07"/>
    </edge>
    <edge id=":145_4" function="internal">
        <lane id=":145_4_0" index="0" speed="6.60" length="9.71" shape="1816.25,793.20 1817.62,790.69 1817.91,788.46 1817.13,786.51 1815.27,784.84"/>
    </edge>
    <edge id=":145_5" function="internal">
        <lane id=":145_5_0" index="0" speed="7.60" length="15.35" shape="1816.25,793.20 1819.29,790.03 1822.39,788.93 1825.53,789.88 1828.73,792.89"/>
    </edge>
    <edge id=":151_0" function="internal">
        <lane id=":151_0_0" index="0" speed="25.00" length="15.91" shape="2050.24,1061.38 2047.34,1063.97 2044.59,1066.95 2042.07,1070.15 2039.86,1073.36"/>
    </edge>
    <edge id=":151_1" function="internal">
        <lane id=":151_1_0" index="0" speed="14.95" length="2.95" shape="2050.24,1061.38 2047.63,1062.76"/>
    </edge>
    <edge id=":151_2" function="internal">
        <lane id=":151_2_0" index="0" speed="8.87" length="2.71" shape="2050.24,1061.38 2047.82,1062.59"/>
    </edge>
    <edge id=":151_12" function="internal">
        <lane id=":151_12_0" index="0" speed="14.95" length="15.72" shape="2047.63,1062.76 2046.48,1063.37 2041.66,1064.69 2036.65,1065.37 2032.29,1065.44"/>
    </edge>
    <edge id=":151_13" function="internal">
        <lane id=":151_13_0" index="0" speed="8.87" length="14.86" shape="2047.82,1062.59 2046.73,1063.13 2043.07,1062.94 2039.28,1060.82 2035.35,1056.78"/>
    </edge>
    <edge id=":151_3" function="internal">
        <lane id=":151_3_0" index="0" speed="7.56" length="12.48" shape="2037.85,1054.78 2040.76,1057.86 2043.46,1059.57 2045.96,1059.91 2048.26,1058.87"/>
    </edge>
    <edge id=":151_4" function="internal">
        <lane id=":151_4_0" index="0" speed="10.81" length="20.09" shape="2037.85,1054.78 2040.87,1059.57 2042.22,1064.27 2041.88,1068.86 2039.86,1073.36"/>
    </edge>
    <edge id=":151_5" function="internal">
        <lane id=":151_5_0" index="0" speed="7.40" length="18.73" shape="2037.85,1054.78 2040.98,1059.80 2041.09,1063.25 2038.20,1065.13 2032.29,1065.44"/>
    </edge>
    <edge id=":151_6" function="internal">
        <lane id=":151_6_0" index="0" speed="5.50" length="9.61" shape="2032.50,1062.24 2035.53,1062.08 2037.01,1061.12 2036.95,1059.35 2035.35,1056.78"/>
    </edge>
    <edge id=":151_7" function="internal">
        <lane id=":151_7_0" index="0" speed="14.04" length="16.41" shape="2032.50,1062.24 2036.52,1062.29 2040.78,1061.83 2044.84,1060.74 2048.26,1058.87"/>
    </edge>
    <edge id=":151_8" function="internal">
        <lane id=":151_8_0" index="0" speed="7.67" length="17.95" shape="2032.50,1062.24 2038.18,1063.27 2041.30,1065.47 2041.86,1068.83 2039.86,1073.36"/>
    </edge>
    <edge id=":151_9" function="internal">
        <lane id=":151_9_0" index="0" speed="6.02" length="10.52" shape="2037.17,1071.64 2038.22,1069.13 2037.76,1067.26 2035.79,1066.03 2032.29,1065.44"/>
    </edge>
    <edge id=":151_10" function="internal">
        <lane id=":151_10_0" index="0" speed="9.72" length="16.08" shape="2037.17,1071.64 2038.73,1068.09 2038.95,1064.43 2037.82,1060.66 2035.35,1056.78"/>
    </edge>
    <edge id=":151_11" function="internal">
        <lane id=":151_11_0" index="0" speed="25.00" length="16.97" shape="2037.17,1071.64 2039.49,1068.30 2042.25,1064.83 2045.25,1061.57 2048.26,1058.87"/>
    </edge>
    <edge id=":156_0" function="internal">
        <lane id=":156_0_0" index="0" speed="11.62" length="11.85" shape="155.04,1301.35 152.75,1303.75 151.09,1305.90 150.08,1308.31 149.73,1311.50"/>
    </edge>
    <edge id=":156_1" function="internal">
        <lane id=":156_1_0" index="0" speed="7.59" length="15.42" shape="155.04,1301.35 151.56,1304.07 148.33,1304.72 145.37,1303.30 142.65,1299.82"/>
    </edge>
    <edge id=":156_2" function="internal">
        <lane id=":156_2_0" index="0" speed="5.98" length="9.08" shape="145.43,1298.23 147.03,1300.28 148.78,1301.12 150.68,1300.73 152.73,1299.13"/>
    </edge>
    <edge id=":156_3" function="internal">
        <lane id=":156_3_0" index="0" speed="17.36" length="14.11" shape="145.43,1298.23 147.15,1301.43 148.52,1304.62 149.41,1307.92 149.73,1311.50"/>
    </edge>
    <edge id=":156_4" function="internal">
        <lane id=":156_4_0" index="0" speed="16.33" length="12.48" shape="146.53,1311.48 146.28,1308.16 145.53,1305.40 144.31,1302.77 142.65,1299.82"/>
    </edge>
    <edge id=":156_5" function="internal">
        <lane id=":156_5_0" index="0" speed="12.67" length="3.17" shape="146.53,1311.48 146.96,1308.34"/>
    </edge>
    <edge id=":156_6" function="internal">
        <lane id=":156_6_0" index="0" speed="12.67" length="11.00" shape="146.96,1308.34 147.02,1307.95 148.34,1304.78 150.30,1301.88 152.73,1299.13"/>
    </edge>
    <edge id=":160_0" function="internal">
        <lane id=":160_0_0" index="0" speed="6.15" length="10.57" shape="951.73,3391.99 949.07,3393.60 946.90,3393.71 945.23,3392.32 944.06,3389.44"/>
    </edge>
    <edge id=":160_1" function="internal">
        <lane id=":160_1_0" index="0" speed="3.94" length="3.52" shape="947.16,3388.65 947.55,3389.61 948.11,3390.08 948.83,3390.04 949.72,3389.50"/>
    </edge>
    <edge id=":169_0" function="internal">
        <lane id=":169_0_0" index="0" speed="6.34" length="4.85" shape="643.85,2677.91 643.15,2676.87 642.77,2675.77 642.69,2674.60 642.93,2673.37"/>
    </edge>
    <edge id=":169_1" function="internal">
        <lane id=":169_1_0" index="0" speed="4.04" length="1.62" shape="645.98,2674.32 645.90,2674.73 645.93,2675.12 646.06,2675.49 646.29,2675.84"/>
    </edge>
    <edge id=":174_0" function="internal">
        <lane id=":174_0_0" index="0" speed="6.59" length="7.24" shape="2034.11,1772.76 2032.30,1772.16 2030.59,1772.16 2029.01,1772.78 2027.54,1774.01"/>
    </edge>
    <edge id=":174_1" function="internal">
        <lane id=":174_1_0" index="0" speed="10.61" length="10.92" shape="2034.11,1772.76 2031.63,1771.28 2029.62,1769.46 2028.09,1767.32 2027.03,1764.85"/>
    </edge>
    <edge id=":174_2" function="internal">
        <lane id=":174_2_0" index="0" speed="9.31" length="8.31" shape="2030.09,1763.90 2030.89,1765.75 2032.06,1767.37 2033.60,1768.75 2035.51,1769.89"/>
    </edge>
    <edge id=":174_3" function="internal">
        <lane id=":174_3_0" index="0" speed="9.02" length="2.73" shape="2030.09,1763.90 2030.57,1766.59"/>
    </edge>
    <edge id=":174_6" function="internal">
        <lane id=":174_6_0" index="0" speed="9.02" length="8.21" shape="2030.57,1766.59 2030.30,1769.17 2029.29,1771.65 2027.54,1774.01"/>
    </edge>
    <edge id=":174_4" function="internal">
        <lane id=":174_4_0" index="0" speed="7.60" length="7.59" shape="2025.18,1771.85 2026.43,1770.18 2027.15,1768.46 2027.35,1766.69 2027.03,1764.85"/>
    </edge>
    <edge id=":174_5" function="internal">
        <lane id=":174_5_0" index="0" speed="8.11" length="11.37" shape="2025.18,1771.85 2027.49,1769.92 2029.98,1768.94 2032.66,1768.93 2035.51,1769.89"/>
    </edge>
    <edge id=":18_0" function="internal">
        <lane id=":18_0_0" index="0" speed="6.17" length="10.41" shape="936.60,2361.64 933.79,2360.18 931.58,2360.13 929.95,2361.46 928.91,2364.20"/>
    </edge>
    <edge id=":18_1" function="internal">
        <lane id=":18_1_0" index="0" speed="12.17" length="16.63" shape="936.60,2361.64 932.78,2359.51 928.87,2358.34 924.87,2358.13 920.77,2358.89"/>
    </edge>
    <edge id=":18_2" function="internal">
        <lane id=":18_2_0" index="0" speed="25.00" length="21.51" shape="936.60,2361.64 932.96,2358.58 928.77,2354.30 924.85,2349.76 922.05,2345.91"/>
    </edge>
    <edge id=":18_3" function="internal">
        <lane id=":18_3_0" index="0" speed="10.96" length="20.58" shape="936.60,2361.64 932.83,2358.13 930.61,2353.91 929.96,2348.99 930.86,2343.37"/>
    </edge>
    <edge id=":18_4" function="internal">
        <lane id=":18_4_0" index="0" speed="7.46" length="17.62" shape="936.60,2361.64 932.74,2358.10 931.76,2354.86 933.68,2351.92 938.49,2349.28"/>
    </edge>
    <edge id=":18_5" function="internal">
        <lane id=":18_5_0" index="0" speed="5.70" length="9.68" shape="939.68,2352.25 936.98,2353.72 935.87,2355.33 936.36,2357.10 938.43,2359.01"/>
    </edge>
    <edge id=":18_6" function="internal">
        <lane id=":18_6_0" index="0" speed="11.54" length="16.77" shape="939.68,2352.25 935.65,2354.34 932.51,2357.02 930.26,2360.31 928.91,2364.20"/>
    </edge>
    <edge id=":18_7" function="internal">
        <lane id=":18_7_0" index="0" speed="25.00" length="20.04" shape="939.68,2352.25 935.44,2353.87 930.28,2355.73 925.09,2357.51 920.77,2358.89"/>
    </edge>
    <edge id=":18_8" function="internal">
        <lane id=":18_8_0" index="0" speed="10.22" length="20.63" shape="939.68,2352.25 934.45,2353.50 929.77,2352.86 925.64,2350.33 922.05,2345.91"/>
    </edge>
    <edge id=":18_9" function="internal">
        <lane id=":18_9_0" index="0" speed="7.48" length="18.38" shape="939.68,2352.25 934.34,2353.60 931.09,2352.57 929.93,2349.16 930.86,2343.37"/>
    </edge>
    <edge id=":18_10" function="internal">
        <lane id=":18_10_0" index="0" speed="5.68" length="9.94" shape="933.94,2344.24 933.41,2347.45 933.99,2349.36 935.68,2349.97 938.49,2349.28"/>
    </edge>
    <edge id=":18_11" function="internal">
        <lane id=":18_11_0" index="0" speed="9.89" length="16.58" shape="933.94,2344.24 933.19,2348.82 933.69,2352.81 935.43,2356.20 938.43,2359.01"/>
    </edge>
    <edge id=":18_12" function="internal">
        <lane id=":18_12_0" index="0" speed="25.00" length="20.58" shape="933.94,2344.24 928.91,2364.20"/>
    </edge>
    <edge id=":18_13" function="internal">
        <lane id=":18_13_0" index="0" speed="12.53" length="5.69" shape="933.94,2344.24 931.88,2349.54"/>
    </edge>
    <edge id=":18_14" function="internal">
        <lane id=":18_14_0" index="0" speed="7.40" length="4.93" shape="933.94,2344.24 932.06,2348.79"/>
    </edge>
    <edge id=":18_30" function="internal">
        <lane id=":18_30_0" index="0" speed="12.53" length="14.90" shape="931.88,2349.54 929.00,2353.75 925.30,2356.87 920.77,2358.89"/>
    </edge>
    <edge id=":18_31" function="internal">
        <lane id=":18_31_0" index="0" speed="7.40" length="13.84" shape="932.06,2348.79 931.68,2349.72 928.94,2351.83 925.73,2350.56 922.05,2345.91"/>
    </edge>
    <edge id=":18_15" function="internal">
        <lane id=":18_15_0" index="0" speed="5.49" length="9.61" shape="924.77,2344.23 926.66,2346.61 928.30,2347.26 929.70,2346.18 930.86,2343.37"/>
    </edge>
    <edge id=":18_16" function="internal">
        <lane id=":18_16_0" index="0" speed="9.08" length="16.10" shape="924.77,2344.23 927.59,2347.71 930.81,2349.71 934.45,2350.23 938.49,2349.28"/>
    </edge>
    <edge id=":18_17" function="internal">
        <lane id=":18_17_0" index="0" speed="25.00" length="20.21" shape="924.77,2344.23 927.44,2347.93 931.04,2352.14 934.93,2356.10 938.43,2359.01"/>
    </edge>
    <edge id=":18_18" function="internal">
        <lane id=":18_18_0" index="0" speed="15.14" length="20.66" shape="924.77,2344.23 926.68,2348.45 928.22,2353.97 929.08,2359.61 928.91,2364.20"/>
    </edge>
    <edge id=":18_19" function="internal">
        <lane id=":18_19_0" index="0" speed="8.33" length="18.57" shape="924.77,2344.23 927.16,2349.40 927.29,2353.57 925.16,2356.73 920.77,2358.89"/>
    </edge>
    <edge id=":18_20" function="internal">
        <lane id=":18_20_0" index="0" speed="6.90" length="12.36" shape="919.85,2355.83 922.63,2354.42 923.92,2352.29 923.72,2349.46 922.05,2345.91"/>
    </edge>
    <edge id=":18_21" function="internal">
        <lane id=":18_21_0" index="0" speed="11.53" length="17.37" shape="919.85,2355.83 923.61,2354.13 926.70,2351.48 929.11,2347.90 930.86,2343.37"/>
    </edge>
    <edge id=":18_22" function="internal">
        <lane id=":18_22_0" index="0" speed="25.00" length="19.76" shape="919.85,2355.83 924.13,2354.46 929.23,2352.71 934.29,2350.88 938.49,2349.28"/>
    </edge>
    <edge id=":18_23" function="internal">
        <lane id=":18_23_0" index="0" speed="13.15" length="19.51" shape="919.85,2355.83 924.68,2354.93 929.38,2355.16 933.96,2356.52 938.43,2359.01"/>
    </edge>
    <edge id=":18_24" function="internal">
        <lane id=":18_24_0" index="0" speed="7.41" length="16.67" shape="919.85,2355.83 924.78,2355.04 927.93,2356.18 929.31,2359.23 928.91,2364.20"/>
    </edge>
    <edge id=":18_25" function="internal">
        <lane id=":18_25_0" index="0" speed="5.69" length="9.22" shape="925.78,2363.52 926.00,2360.77 925.24,2359.08 923.50,2358.46 920.77,2358.89"/>
    </edge>
    <edge id=":18_26" function="internal">
        <lane id=":18_26_0" index="0" speed="14.26" length="18.29" shape="925.78,2363.52 926.02,2359.31 925.30,2354.48 923.89,2349.77 922.05,2345.91"/>
    </edge>
    <edge id=":18_27" function="internal">
        <lane id=":18_27_0" index="0" speed="25.00" length="20.78" shape="925.78,2363.52 930.86,2343.37"/>
    </edge>
    <edge id=":18_28" function="internal">
        <lane id=":18_28_0" index="0" speed="12.54" length="5.66" shape="925.78,2363.52 927.39,2358.87 927.80,2358.26"/>
    </edge>
    <edge id=":18_29" function="internal">
        <lane id=":18_29_0" index="0" speed="7.76" length="4.93" shape="925.78,2363.52 927.51,2358.91"/>
    </edge>
    <edge id=":18_32" function="internal">