<?xml version="1.0" encoding="UTF-8"?>

<!-- generated on 2026-04-30 17:43:32.938200 by Eclipse SUMO randomTrips.py v1.26.0
<configuration>
    <net-file value="scenarios/interurban/interurban.net.xml"/>
    <output-trip-file value="scenarios/interurban/interurban.trips.xml"/>
    <route-file value="scenarios/interurban/interurban.rou.xml"/>
    <seed value="395371"/>
    <end value="150.0"/>
    <period value="1.5"/>
</configuration>
-->

<routes xmlns:xsi="http://www.w3.org/2001/XMLSchema-instance" xsi:noNamespaceSchemaLocation="http://sumo.dlr.de/xsd/routes_file.xsd">
    <trip id="0" depart="0.00" from="-497" to="426"/>
    <trip id="1" depart="1.50" from="-53" to="55"/>
    <trip id="2" depart="3.00" from="165" to="514"/>
    <trip id="3" depart="4.50" from="-354" to="521"/>
    <trip id="4" depart="6.00" from="-521" to="-13"/>
    <trip id="5" depart="7.50" from="278" to="-3"/>
    <trip id="6" depart="9.00" from="-3" to="533"/>
    <trip id="7" depart="10.50" from="426" to="121"/>
    <trip id="8" depart="12.00" from="278" to="-468"/>
    <trip id="9" depart="13.50" from="122" to="-122"/>
    <trip id="10" depart="15.00" from="-163" to="497"/>
    <trip id="11" depart="16.50" from="-423" to="11"/>
    <trip id="12" depart="18.00" from="-537" to="-159"/>
    <trip id="13" depart="19.50" from="495" to="-451"/>
    <trip id="14" depart="21.00" from="468" to="529"/>
    <trip id="15" depart="22.50" from="136" to="-21"/>
    <trip id="16" depart="24.00" from="-473" to="-124"/>
    <trip id="17" depart="25.50" from="30" to="473"/>
    <trip id="18" depart="27.00" from="426" to="-124"/>
    <trip id="19" depart="28.50" from="159" to="124"/>
    <trip id="20" depart="30.00" from="-451" to="124"/>
    <trip id="21" depart="31.50" from="459" to="514"/>
    <trip id="22" depart="33.00" from="-427" to="479"/>
    <trip id="23" depart="34.50" from="-41" to="45"/>
    <trip id="24" depart="36.00" from="497" to="-130"/>
    <trip id="25" depart="37.50" from="22" to="-30"/>
    <trip id="26" depart="39.00" from="-479" to="278"/>
    <trip id="27" depart="40.50" from="-128" to="22"/>
    <trip id="28" depart="42.00" from="3" to="426"/>
    <trip id="29" depart="43.50" from="53" to="-159"/>
    <trip id="30" depart="45.00" from="-537" to="13"/>
    <trip id="31" depart="46.50" from="136" to="-468"/>
    <trip id="32" depart="48.00" from="128" to="423"/>
    <trip id="33" depart="49.50" from="-483" to="163"/>
    <trip id="34" depart="51.00" from="-30" to="426"/>
    <trip id="35" depart="52.50" from="-22" to="428"/>
    <trip id="36" depart="54.00" from="-159" to="-128"/>
    <trip id="37" depart="55.50" from="451" to="3"/>
    <trip id="38" depart="57.00" from="-128" to="-300"/>
    <trip id="39" depart="58.50" from="164" to="-427"/>
    <trip id="40" depart="60.00" from="436" to="521"/>
    <trip id="41" depart="61.50" from="-121" to="3"/>
    <trip id="42" depart="63.00" from="-163" to="136"/>
    <trip id="43" depart="64.50" from="-13" to="-522"/>
    <trip id="44" depart="66.00" from="300" to="-412"/>
    <trip id="45" depart="67.50" from="-278" to="521"/>
    <trip id="46" depart="69.00" from="45" to="21"/>
    <trip id="47" depart="70.50" from="423" to="354"/>
    <trip id="48" depart="72.00" from="73" to="529"/>
    <trip id="49" depart="73.50" from="426" to="-423"/>
    <trip id="50" depart="75.00" from="165" to="278"/>
    <trip id="51" depart="76.50" from="-53" to="-495"/>
    <trip id="52" depart="78.00" from="124" to="-473"/>
    <trip id="53" depart="79.50" from="522" to="427"/>
    <trip id="54" depart="81.00" from="49" to="-128"/>
    <trip id="55" depart="82.50" from="-282" to="-451"/>
    <trip id="56" depart="84.00" from="436" to="-423"/>
    <trip id="57" depart="85.50" from="-282" to="11"/>
    <trip id="58" depart="87.00" from="-163" to="449"/>
    <trip id="59" depart="88.50" from="-122" to="-130"/>
    <trip id="60" depart="90.00" from="130" to="451"/>
    <trip id="61" depart="91.50" from="49" to="-124"/>
    <trip id="62" depart="93.00" from="-137" to="124"/>
    <trip id="63" depart="94.50" from="278" to="449"/>
    <trip id="64" depart="96.00" from="529" to="-45"/>
    <trip id="65" depart="97.50" from="-30" to="522"/>
    <trip id="66" depart="99.00" from="300" to="354"/>
    <trip id="67" depart="100.50" from="-159" to="426"/>
    <trip id="68" depart="102.00" from="-128" to="449"/>
    <trip id="69" depart="103.50" from="-479" to="34"/>
    <trip id="70" depart="105.00" from="278" to="45"/>
    <trip id="71" depart="106.50" from="30" to="-423"/>
    <trip id="72" depart="108.00" from="-468" to="-73"/>
    <trip id="73" depart="109.50" from="529" to="-21"/>
    <trip id="74" depart="111.00" from="-137" to="300"/>
    <trip id="75" depart="112.50" from="282" to="-522"/>
    <trip id="76" depart="114.00" from="164" to="-459"/>
    <trip id="77" depart="115.50" from="-495" to="423"/>
    <trip id="78" depart="117.00" from="-137" to="-49"/>
    <trip id="79" depart="118.50" from="122" to="-354"/>
    <trip id="80" depart="120.00" from="522" to="-3"/>
    <trip id="81" depart="121.50" from="300" to="-130"/>
    <trip id="82" depart="123.00" from="-34" to="-428"/>
    <trip id="83" depart="124.50" from="-22" to="-479"/>
    <trip id="84" depart="126.00" from="468" to="128"/>
    <trip id="85" depart="127.50" from="-451" to="-164"/>
    <trip id="86" depart="129.00" from="45" to="-121"/>
    <trip id="87" depart="130.50" from="3" to="425"/>
    <trip id="88" depart="132.00" from="73" to="163"/>
    <trip id="89" depart="133.50" from="-159" to="-164"/>
    <trip id="90" depart="135.00" from="-426" to="522"/>
    <trip id="91" depart="136.50" from="451" to="-124"/>
    <trip id="92" depart="138.00" from="278" to="21"/>
    <trip id="93" depart="139.50" from="128" to="427"/>
    <trip id="94" depart="141.00" from="-3" to="3"/>
    <trip id="95" depart="142.50" from="163" to="-130"/>
    <trip id="96" depart="144.00" from="30" to="423"/>
    <trip id="97" depart="145.50" from="53" to="506"/>
    <trip id="98" depart="147.00" from="163" to="3"/>
    <trip id="99" depart="148.50" from="-41" to="282"/>
</routes>
