<edges><edge id="E_town_0_0_town_1_0" from="town_0_0" to="town_1_0" numLanes="1" speed="25.00" priority="2" /><edge id="E_town_1_0_town_0_0" from="town_1_0" to="town_0_0" numLanes="1" speed="25.00" priority="2" /><edge id="E_town_1_0_town_2_0" from="town_1_0" to="town_2_0" numLanes="1" speed="25.00" priority="2" /><edge id="E_town_2_0_town_1_0" from="town_2_0" to="town_1_0" numLanes="1" speed="25.00" priority="2" /><edge id="E_town_2_0_town_3_0" from="town_2_0" to="town_3_0" numLanes="1" speed="25.00" priority="2" /><edge id="E_town_3_0_town_2_0" from="town_3_0" to="town_2_0" numLanes="1" speed="25.00" priority="2" /><edge id="E_town_0_1_town_1_1" from="town_0_1" to="town_1_1" numLanes="1" speed="25.00" priority="2" /><edge id="E_town_1_1_town_0_1" from="town_1_1" to="town_0_1" numLanes="1" speed="25.00" priority="2" /><edge id="E_town_1_1_town_2_1" from="town_1_1" to="town_2_1" numLanes="1" speed="25.00" priority="2" /><edge id="E_town_2_1_town_1_1" from="town_2_1" to="town_1_1" numLanes="1" speed="25.00" priority="2" /><edge id="E_town_2_1_town_3_1" from="town_2_1" to="town_3_1" numLanes="1" speed="25.00" priority="2" /><edge id="E_town_3_1_town_2_1" from="town_3_1" to="town_2_1" numLanes="1" speed="25.00" priority="2" /><edge id="E_town_0_2_town_1_2" from="town_0_2" to="town_1_2" numLanes="1" speed="25.00" priority="2" /><edge id="E_town_1_2_town_0_2" from="town_1_2" to="town_0_2" numLanes="1" speed="25.00" priority="2" /><edge id="E_town_1_2_town_2_2" from="town_1_2" to="town_2_2" numLanes="1" speed="25.00" priority="2" /><edge id="E_town_2_2_town_1_2" from="town_2_2" to="town_1_2" numLanes="1" speed="25.00" priority="2" /><edge id="E_town_2_2_town_3_2" from="town_2_2" to="town_3_2" numLanes="1" speed="25.00" priority="2" /><edge id="E_town_3_2_town_2_2" from="town_3_2" to="town_2_2" numLanes="1" speed="25.00" priority="2" /><edge id="E_town_0_3_town_1_3" from="town_0_3" to="town_1_3" numLanes="2" speed="33.33" priority="3" /><edge id="E_town_1_3_town_0_3" from="town_1_3" to="town_0_3" numLanes="2" speed="33.33" priority="3" /><edge id="E_town_1_3_town_2_3" from="town_1_3" to="town_2_3" numLanes="2" speed="33.33" priority="3" /><edge id="E_town_2_3_town_1_3" from="town_2_3" to="town_1_3" numLanes="2" speed="33.33" priority="3" /><edge id="E_town_2_3_town_3_3" from="town_2_3" to="town_3_3" numLanes="2" speed="33.33" priority="3" /><edge id="E_town_3_3_town_2_3" from="town_3_3" to="town_2_3" numLanes="2" speed="33.33" priority="3" /><edge id="E_town_0_0_town_0_1" from="town_0_0" to="town_0_1" numLanes="2" speed="33.33" priority="3" /><edge id="E_town_0_1_town_0_0" from="town_0_1" to="town_0_0" numLanes="2" speed="33.33" priority="3" /><edge id="E_town_0_1_town_0_2" from="town_0_1" to="town_0_2" numLanes="2" speed="33.33" priority="3" /><edge id="E_town_0_2_town_0_1" from="town_0_2" to="town_0_1" numLanes="2" speed="33.33" priority="3" /><edge id="E_town_0_2_town_0_3" from="town_0_2" to="town_0_3" numLanes="2" speed="33.33" priority="3" /><edge id="E_town_0_3_town_0_2" from="town_0_3" to="town_0_2" numLanes="2" speed="33.33" priority="3" /><edge id="E_town_1_0_town_1_1" from="town_1_0" to="town_1_1" numLanes="1" speed="25.00" priority="2" /><edge id="E_town_1_1_town_1_0" from="town_1_1" to="town_1_0" numLanes="1" speed="25.00" priority="2" /><edge id="E_town_1_1_town_1_2" from="town_1_1" to="town_1_2" numLanes="1" speed="25.00" priority="2" /><edge id="E_town_1_2_town_1_1" from="town_1_2" to="town_1_1" numLanes="1" speed="25.00" priority="2" /><edge id="E_town_1_2_town_1_3" from="town_1_2" to="town_1_3" numLanes="1" speed="25.00" priority="2" /><edge id="E_town_1_3_town_1_2" from="town_1_3" to="town_1_2" numLanes="1" speed="25.00" priority="2" /><edge id="E_town_2_0_town_2_1" from="town_2_0" to="town_2_1" numLanes="1" speed="25.00" priority="2" /><edge id="E_town_2_1_town_2_0" from="town_2_1" to="town_2_0" numLanes="1" speed="25.00" priority="2" /><edge id="E_town_2_1_town_2_2" from="town_2_1" to="town_2_2" numLanes="1" speed="25.00" priority="2" /><edge id="E_town_2_2_town_2_1" from="town_2_2" to="town_2_1" numLanes="1" speed="25.00" priority="2" /><edge id="E_town_2_2_town_2_3" from="town_2_2" to="town_2_3" numLanes="1" speed="25.00" priority="2" /><edge id="E_town_2_3_town_2_2" from="town_2_3" to="town_2_2" numLanes="1" speed="25.00" priority="2" /><edge id="E_town_3_0_town_3_1" from="town_3_0" to="town_3_1" numLanes="1" speed="25.00" priority="2" /><edge id="E_town_3_1_town_3_0" from="town_3_1" to="town_3_0" numLanes="1" speed="25.00" priority="2" /><edge id="E_town_3_1_town_3_2" from="town_3_1" to="town_3_2" numLanes="1" speed="25.00" priority="2" /><edge id="E_town_3_2_town_3_1" from="town_3_2" to="town_3_1" numLanes="1" speed="25.00" priority="2" /><edge id="E_town_3_2_town_3_3" from="town_3_2" to="town_3_3" numLanes="1" speed="25.00" priority="2" /><edge id="E_town_3_3_town_3_2" from="town_3_3" to="town_3_2" numLanes="1" speed="25.00" priority="2" /></edges>