<nodes><node id="town_0_0" x="0" y="0" type="priority" /><node id="town_1_0" x="800" y="0" type="priority" /><node id="town_2_0" x="1600" y="0" type="priority" /><node id="town_3_0" x="2400" y="0" type="priority" /><node id="town_0_1" x="0" y="800" type="priority" /><node id="town_1_1" x="800" y="800" type="priority" /><node id="town_2_1" x="1600" y="800" type="priority" /><node id="town_3_1" x="2400" y="800" type="priority" /><node id="town_0_2" x="0" y="1600" type="priority" /><node id="town_1_2" x="800" y="1600" type="priority" /><node id="town_2_2" x="1600" y="1600" type="priority" /><node id="town_3_2" x="2400" y="1600" type="priority" /><node id="town_0_3" x="0" y="2400" type="priority" /><node id="town_1_3" x="800" y="2400" type="priority" /><node id="town_2_3" x="1600" y="2400" type="priority" /><node id="town_3_3" x="2400" y="2400" type="priority" /></nodes>