<?xml version="1.0" encoding="UTF-8"?>

<!-- generated on 2026-04-30T17:43:32.775854+01:00 by Eclipse SUMO netgenerate 1.26.0
<netgenerateConfiguration xmlns:xsi="http://www.w3.org/2001/XMLSchema-instance" xsi:noNamespaceSchemaLocation="http://sumo.dlr.de/xsd/netgenerateConfiguration.xsd">

    <random_network>
        <rand value="true"/>
        <rand.iterations value="40"/>
        <rand.max-distance value="600"/>
        <rand.min-distance value="200"/>
    </random_network>

    <output>
        <output-file value="scenarios/interurban/interurban.net.xml"/>
    </output>

    <processing>
        <bidi-probability value="1.0"/>
    </processing>

    <building_defaults>
        <default.lanenumber value="1"/>
        <default.speed value="25.0"/>
    </building_defaults>

    <junctions>
        <no-turnarounds value="true"/>
    </junctions>

    <random_number>
        <seed value="395371"/>
    </random_number>

</netgenerateConfiguration>
-->

<net version="1.20" junctionCornerDetail="5" limitTurnSpeed="5.50" xmlns:xsi="http://www.w3.org/2001/XMLSchema-instance" xsi:noNamespaceSchemaLocation="http://sumo.dlr.de/xsd/net_file.xsd">

    <location netOffset="2337.87,2132.22" convBoundary="0.00,0.00,2606.42,3025.78" origBoundary="-2337.87,-2132.22,268.56,893.56" projParameter="!"/>

    <edge id=":1_0" function="internal">
        <lane id=":1_0_0" index="0" speed="5.61" length="9.30" shape="2340.83,2141.80 2339.26,2139.45 2337.63,2138.63 2335.95,2139.33 2334.21,2141.56"/>
    </edge>
    <edge id=":1_1" function="internal">
        <lane id=":1_1_0" index="0" speed="25.00" length="18.64" shape="2340.83,2141.80 2338.75,2138.02 2336.09,2133.78 2333.23,2129.68 2330.55,2126.30"/>
    </edge>
    <edge id=":1_2" function="internal">
        <lane id=":1_2_0" index="0" speed="13.79" length="19.19" shape="2340.83,2141.80 2339.41,2137.51 2338.72,2132.36 2338.81,2127.22 2339.73,2122.99"/>
    </edge>
    <edge id=":1_3" function="internal">
        <lane id=":1_3_0" index="0" speed="12.91" length="16.75" shape="2342.71,2124.15 2341.61,2128.16 2341.41,2132.20 2342.11,2136.28 2343.70,2140.38"/>
    </edge>
    <edge id=":1_4" function="internal">
        <lane id=":1_4_0" index="0" speed="25.00" length="19.39" shape="2342.71,2124.15 2340.98,2128.23 2338.74,2132.99 2336.36,2137.68 2334.21,2141.56"/>
    </edge>
    <edge id=":1_5" function="internal">
        <lane id=":1_5_0" index="0" speed="7.43" length="5.10" shape="2342.71,2124.15 2340.34,2128.45 2340.19,2128.55"/>
    </edge>
    <edge id=":1_12" function="internal">
        <lane id=":1_12_0" index="0" speed="7.43" length="11.42" shape="2340.19,2128.55 2337.52,2130.24 2334.26,2129.53 2330.55,2126.30"/>
    </edge>
    <edge id=":1_6" function="internal">
        <lane id=":1_6_0" index="0" speed="5.72" length="9.20" shape="2332.95,2124.19 2335.02,2125.99 2336.84,2126.39 2338.41,2125.39 2339.73,2122.99"/>
    </edge>
    <edge id=":1_7" function="internal">
        <lane id=":1_7_0" index="0" speed="25.00" length="19.47" shape="2332.95,2124.19 2335.71,2127.68 2338.73,2132.02 2341.55,2136.49 2343.70,2140.38"/>
    </edge>
    <edge id=":1_8" function="internal">
        <lane id=":1_8_0" index="0" speed="10.28" length="18.25" shape="2332.95,2124.19 2335.00,2127.89 2335.93,2132.56 2335.69,2137.39 2334.21,2141.56"/>
    </edge>
    <edge id=":1_9" function="internal">
        <lane id=":1_9_0" index="0" speed="9.27" length="14.72" shape="2331.46,2139.93 2333.07,2136.26 2333.45,2132.76 2332.61,2129.44 2330.55,2126.30"/>
    </edge>
    <edge id=":1_10" function="internal">
        <lane id=":1_10_0" index="0" speed="25.00" length="18.87" shape="2331.46,2139.93 2333.57,2136.13 2335.87,2131.60 2338.03,2127.00 2339.73,2122.99"/>
    </edge>
    <edge id=":1_11" function="internal">
        <lane id=":1_11_0" index="0" speed="7.39" length="4.53" shape="2331.46,2139.93 2334.24,2136.36"/>
    </edge>
    <edge id=":1_13" function="internal">
        <lane id=":1_13_0" index="0" speed="7.39" length="12.68" shape="2334.24,2136.36 2334.67,2135.81 2337.79,2134.51 2340.79,2136.04 2343.70,2140.38"/>
    </edge>
    <edge id=":12_0" function="internal">
        <lane id=":12_0_0" index="0" speed="25.00" length="15.83" shape="2073.93,2582.30 2071.88,2585.59 2069.62,2588.93 2067.28,2592.22 2064.97,2595.34"/>
    </edge>
    <edge id=":12_1" function="internal">
        <lane id=":12_1_0" index="0" speed="10.12" length="3.69" shape="2073.93,2582.30 2071.69,2584.90 2071.47,2585.02"/>
    </edge>
    <edge id=":12_6" function="internal">
        <lane id=":12_6_0" index="0" speed="10.12" length="12.18" shape="2071.47,2585.02 2068.58,2586.59 2064.60,2587.36 2059.75,2587.20"/>
    </edge>
    <edge id=":12_2" function="internal">
        <lane id=":12_2_0" index="0" speed="8.92" length="12.18" shape="2060.12,2584.02 2064.00,2584.18 2067.13,2583.68 2069.52,2582.51 2071.17,2580.67"/>
    </edge>
    <edge id=":12_3" function="internal">
        <lane id=":12_3_0" index="0" speed="7.40" length="16.85" shape="2060.12,2584.02 2065.04,2585.27 2067.48,2587.57 2067.46,2590.92 2064.97,2595.34"/>
    </edge>
    <edge id=":12_4" function="internal">
        <lane id=":12_4_0" index="0" speed="5.66" length="9.25" shape="2062.41,2593.41 2063.78,2590.99 2063.79,2589.15 2062.45,2587.89 2059.75,2587.20"/>
    </edge>
    <edge id=":12_5" function="internal">
        <lane id=":12_5_0" index="0" speed="25.00" length="15.47" shape="2062.41,2593.41 2064.69,2590.34 2066.97,2587.16 2069.16,2583.92 2071.17,2580.67"/>
    </edge>
    <edge id=":120_0" function="internal">
        <lane id=":120_0_0" index="0" speed="5.98" length="9.69" shape="873.52,1372.05 870.79,1370.79 868.70,1370.79 867.23,1372.05 866.39,1374.58"/>
    </edge>
    <edge id=":120_1" function="internal">
        <lane id=":120_1_0" index="0" speed="25.00" length="16.66" shape="873.52,1372.05 870.18,1369.81 866.76,1367.17 863.55,1364.27 860.90,1361.28"/>
    </edge>
    <edge id=":120_2" function="internal">
        <lane id=":120_2_0" index="0" speed="7.40" length="5.30" shape="873.52,1372.05 869.62,1368.84 869.53,1368.61"/>
    </edge>
    <edge id=":120_12" function="internal">
        <lane id=":120_12_0" index="0" speed="7.40" length="11.52" shape="869.53,1368.61 868.38,1365.72 869.82,1362.69 873.92,1359.74"/>
    </edge>
    <edge id=":120_3" function="internal">
        <lane id=":120_3_0" index="0" speed="5.67" length="9.24" shape="875.43,1362.57 873.17,1364.18 872.39,1365.85 873.06,1367.57 875.21,1369.33"/>
    </edge>
    <edge id=":120_4" function="internal">
        <lane id=":120_4_0" index="0" speed="11.63" length="15.58" shape="875.43,1362.57 871.97,1364.86 869.31,1367.63 867.45,1370.87 866.39,1374.58"/>
    </edge>
    <edge id=":120_5" function="internal">
        <lane id=":120_5_0" index="0" speed="9.02" length="16.03" shape="875.43,1362.57 870.91,1364.41 866.98,1364.81 863.65,1363.77 860.90,1361.28"/>
    </edge>
    <edge id=":120_6" function="internal">
        <lane id=":120_6_0" index="0" speed="7.71" length="11.48" shape="863.44,1359.34 865.32,1360.96 867.69,1361.57 870.56,1361.16 873.92,1359.74"/>
    </edge>
    <edge id=":120_7" function="internal">
        <lane id=":120_7_0" index="0" speed="25.00" length="15.51" shape="863.44,1359.34 865.96,1362.21 868.87,1364.84 872.00,1367.21 875.21,1369.33"/>
    </edge>
    <edge id=":120_8" function="internal">
        <lane id=":120_8_0" index="0" speed="12.75" length="3.67" shape="863.44,1359.34 865.31,1362.50"/>
    </edge>
    <edge id=":120_13" function="internal">
        <lane id=":120_13_0" index="0" speed="12.75" length="12.28" shape="865.31,1362.50 866.43,1366.09 866.79,1370.12 866.39,1374.58"/>
    </edge>
    <edge id=":120_9" function="internal">
        <lane id=":120_9_0" index="0" speed="11.69" length="13.34" shape="863.24,1374.05 863.59,1370.26 863.31,1366.87 862.42,1363.88 860.90,1361.28"/>
    </edge>
    <edge id=":120_10" function="internal">
        <lane id=":120_10_0" index="0" speed="12.65" length="18.52" shape="863.24,1374.05 864.49,1369.62 866.69,1365.75 869.83,1362.46 873.92,1359.74"/>
    </edge>
    <edge id=":120_11" function="internal">
        <lane id=":120_11_0" index="0" speed="7.61" length="16.52" shape="863.24,1374.05 864.67,1369.62 867.14,1367.36 870.66,1367.26 875.21,1369.33"/>
    </edge>
    <edge id=":123_0" function="internal">
        <lane id=":123_0_0" index="0" speed="25.00" length="17.49" shape="1141.41,2010.10 1137.80,2008.08 1133.73,2005.93 1129.60,2003.88 1125.83,2002.18"/>
    </edge>
    <edge id=":123_1" function="internal">
        <lane id=":123_1_0" index="0" speed="10.60" length="4.52" shape="1141.41,2010.10 1137.86,2007.31"/>
    </edge>
    <edge id=":123_2" function="internal">
        <lane id=":123_2_0" index="0" speed="7.49" length="4.60" shape="1141.41,2010.10 1137.79,2007.27"/>
    </edge>
    <edge id=":123_12" function="internal">
        <lane id=":123_12_0" index="0" speed="10.60" length="15.62" shape="1137.86,2007.31 1137.36,2006.91 1134.88,2002.95 1133.97,1998.24 1134.65,1992.77"/>
    </edge>
    <edge id=":123_13" function="internal">
        <lane id=":123_13_0" index="0" speed="7.49" length="13.29" shape="1137.79,2007.27 1137.27,2006.86 1136.10,2003.68 1137.88,2000.57 1142.63,1997.51"/>
    </edge>
    <edge id=":123_3" function="internal">
        <lane id=":123_3_0" index="0" speed="5.75" length="9.90" shape="1144.03,2000.39 1141.32,2002.11 1140.25,2003.84 1140.82,2005.58 1143.02,2007.34"/>
    </edge>
    <edge id=":123_4" function="internal">
        <lane id=":123_4_0" index="0" speed="13.45" length="18.84" shape="1144.03,2000.39 1138.99,2002.40 1134.27,2003.37 1129.89,2003.29 1125.83,2002.18"/>
    </edge>
    <edge id=":123_5" function="internal">
        <lane id=":123_5_0" index="0" speed="7.38" length="18.28" shape="1144.03,2000.39 1138.63,2002.25 1135.26,2001.60 1133.94,1998.44 1134.65,1992.77"/>
    </edge>
    <edge id=":123_6" function="internal">
        <lane id=":123_6_0" index="0" speed="5.52" length="9.51" shape="1137.75,1993.55 1137.38,1996.50 1138.07,1998.14 1139.82,1998.48 1142.63,1997.51"/>
    </edge>
    <edge id=":123_7" function="internal">
        <lane id=":123_7_0" index="0" speed="9.49" length="15.98" shape="1137.75,1993.55 1137.20,1997.92 1137.90,2001.68 1139.84,2004.82 1143.02,2007.34"/>
    </edge>
    <edge id=":123_8" function="internal">
        <lane id=":123_8_0" index="0" speed="8.34" length="17.30" shape="1137.75,1993.55 1135.85,1998.71 1133.23,2001.88 1129.89,2003.03 1125.83,2002.18"/>
    </edge>
    <edge id=":123_9" function="internal">
        <lane id=":123_9_0" index="0" speed="6.93" length="11.59" shape="1127.06,1999.23 1129.56,1999.68 1131.66,1998.75 1133.36,1996.45 1134.65,1992.77"/>
    </edge>
    <edge id=":123_10" function="internal">
        <lane id=":123_10_0" index="0" speed="12.47" length="16.13" shape="1127.06,1999.23 1130.46,2000.14 1134.18,2000.15 1138.24,1999.28 1142.63,1997.51"/>
    </edge>
    <edge id=":123_11" function="internal">
        <lane id=":123_11_0" index="0" speed="25.00" length="17.91" shape="1127.06,1999.23 1130.89,2000.96 1135.15,2003.07 1139.35,2005.28 1143.02,2007.34"/>
    </edge>
    <edge id=":127_0" function="internal">
        <lane id=":127_0_0" index="0" speed="6.11" length="9.84" shape="1486.87,2671.01 1485.42,2668.56 1485.29,2666.49 1486.49,2664.80 1489.02,2663.48"/>
    </edge>
    <edge id=":127_1" function="internal">
        <lane id=":127_1_0" index="0" speed="3.92" length="3.28" shape="1490.08,2666.50 1489.24,2666.94 1488.84,2667.50 1488.88,2668.19 1489.37,2669.01"/>
    </edge>
    <edge id=":129_0" function="internal">
        <lane id=":129_0_0" index="0" speed="25.00" length="0.42" shape="1417.91,2171.03 1417.82,2170.94 1417.76,2170.88 1417.69,2170.83 1417.58,2170.77"/>
    </edge>
    <edge id=":129_1" function="internal">
        <lane id=":129_1_0" index="0" speed="25.00" length="1.27" shape="1419.19,2168.00 1419.51,2168.20 1419.72,2168.34 1419.92,2168.51 1420.19,2168.78"/>
    </edge>
    <edge id=":158_0" function="internal">
        <lane id=":158_0_0" index="0" speed="11.60" length="13.76" shape="790.14,1861.78 787.30,1861.03 784.13,1861.04 780.65,1861.81 776.85,1863.33"/>
    </edge>
    <edge id=":158_1" function="internal">
        <lane id=":158_1_0" index="0" speed="25.00" length="16.31" shape="790.14,1861.78 786.56,1860.10 782.88,1858.07 779.30,1855.88 776.00,1853.68"/>
    </edge>
    <edge id=":158_2" function="internal">
        <lane id=":158_2_0" index="0" speed="9.15" length="3.92" shape="790.14,1861.78 787.10,1859.82 786.93,1859.58"/>
    </edge>
    <edge id=":158_12" function="internal">
        <lane id=":158_12_0" index="0" speed="9.15" length="11.63" shape="786.93,1859.58 785.16,1856.97 784.34,1853.23 784.63,1848.59"/>
    </edge>
    <edge id=":158_3" function="internal">
        <lane id=":158_3_0" index="0" speed="7.86" length="11.23" shape="787.79,1849.11 787.53,1852.60 788.05,1855.38 789.33,1857.46 791.37,1858.82"/>
    </edge>
    <edge id=":158_4" function="internal">
        <lane id=":158_4_0" index="0" speed="12.31" length="18.68" shape="787.79,1849.11 786.50,1853.66 784.25,1857.54 781.03,1860.77 776.85,1863.33"/>
    </edge>
    <edge id=":158_5" function="internal">
        <lane id=":158_5_0" index="0" speed="7.52" length="16.58" shape="787.79,1849.11 786.34,1853.68 783.90,1855.97 780.45,1855.97 776.00,1853.68"/>
    </edge>
    <edge id=":158_6" function="internal">
        <lane id=":158_6_0" index="0" speed="5.85" length="9.49" shape="777.83,1851.05 780.40,1852.39 782.40,1852.42 783.81,1851.16 784.63,1848.59"/>
    </edge>
    <edge id=":158_7" function="internal">
        <lane id=":158_7_0" index="0" speed="25.00" length="15.64" shape="777.83,1851.05 781.03,1853.20 784.41,1855.28 787.89,1857.20 791.37,1858.82"/>
    </edge>
    <edge id=":158_8" function="internal">
        <lane id=":158_8_0" index="0" speed="7.41" length="4.59" shape="777.83,1851.05 781.22,1854.14"/>
    </edge>
    <edge id=":158_13" function="internal">
        <lane id=":158_13_0" index="0" speed="7.41" length="12.17" shape="781.22,1854.14 781.54,1854.44 782.62,1857.61 781.06,1860.58 776.85,1863.33"/>
    </edge>
    <edge id=":158_9" function="internal">
        <lane id=":158_9_0" index="0" speed="5.67" length="9.23" shape="775.47,1860.45 777.78,1858.93 778.65,1857.30 778.05,1855.55 776.00,1853.68"/>
    </edge>
    <edge id=":158_10" function="internal">
        <lane id=":158_10_0" index="0" speed="11.29" length="15.60" shape="775.47,1860.45 778.97,1858.30 781.67,1855.61 783.55,1852.37 784.63,1848.59"/>
    </edge>
    <edge id=":158_11" function="internal">
        <lane id=":158_11_0" index="0" speed="12.65" length="16.46" shape="775.47,1860.45 779.92,1858.69 784.05,1857.83 787.87,1857.88 791.37,1858.82"/>
    </edge>
    <edge id=":162_0" function="internal">
        <lane id=":162_0_0" index="0" speed="6.79" length="11.61" shape="688.56,1135.74 686.54,1134.01 684.27,1133.75 681.76,1134.98 678.99,1137.69"/>
    </edge>
    <edge id=":162_1" function="internal">
        <lane id=":162_1_0" index="0" speed="11.79" length="16.49" shape="688.56,1135.74 685.93,1133.17 682.59,1131.36 678.52,1130.31 673.72,1130.02"/>
    </edge>
    <edge id=":162_2" function="internal">
        <lane id=":162_2_0" index="0" speed="25.00" length="19.21" shape="688.56,1135.74 685.81,1132.30 682.46,1128.32 679.05,1124.40 676.10,1121.12"/>
    </edge>
    <edge id=":162_3" function="internal">
        <lane id=":162_3_0" index="0" speed="13.81" length="4.62" shape="688.56,1135.74 686.30,1131.94 686.24,1131.75"/>
    </edge>
    <edge id=":162_4" function="internal">
        <lane id=":162_4_0" index="0" speed="7.83" length="3.91" shape="688.56,1135.74 686.71,1132.29"/>
    </edge>
    <edge id=":162_30" function="internal">
        <lane id=":162_30_0" index="0" speed="13.81" length="14.39" shape="686.24,1131.75 684.96,1127.65 684.53,1122.87 685.02,1117.60"/>
    </edge>
    <edge id=":162_31" function="internal">
        <lane id=":162_31_0" index="0" speed="7.83" length="12.55" shape="686.71,1132.29 686.49,1131.87 686.58,1128.49 688.83,1125.60 693.24,1123.20"/>
    </edge>
    <edge id=":162_5" function="internal">
        <lane id=":162_5_0" index="0" speed="6.29" length="10.17" shape="694.41,1126.18 691.57,1127.69 690.07,1129.46 689.91,1131.50 691.10,1133.80"/>
    </edge>
    <edge id=":162_6" function="internal">
        <lane id=":162_6_0" index="0" speed="21.17" length="19.36" shape="694.41,1126.18 690.49,1128.21 686.16,1131.18 682.10,1134.53 678.99,1137.69"/>
    </edge>
    <edge id=":162_7" function="internal">
        <lane id=":162_7_0" index="0" speed="25.00" length="21.10" shape="694.41,1126.18 689.91,1127.54 684.19,1128.75 678.41,1129.64 673.72,1130.02"/>
    </edge>
    <edge id=":162_8" function="internal">
        <lane id=":162_8_0" index="0" speed="11.11" length="20.30" shape="694.41,1126.18 689.51,1127.34 684.82,1126.88 680.35,1124.81 676.10,1121.12"/>
    </edge>
    <edge id=":162_9" function="internal">
        <lane id=":162_9_0" index="0" speed="7.51" length="17.51" shape="694.41,1126.18 689.45,1127.36 686.24,1126.32 684.76,1123.07 685.02,1117.60"/>
    </edge>
    <edge id=":162_10" function="internal">
        <lane id=":162_10_0" index="0" speed="5.80" length="9.84" shape="688.17,1118.14 688.00,1121.29 688.79,1123.18 690.54,1123.82 693.24,1123.20"/>
    </edge>
    <edge id=":162_11" function="internal">
        <lane id=":162_11_0" index="0" speed="12.85" length="16.38" shape="688.17,1118.14 687.73,1122.74 688.08,1126.89 689.20,1130.57 691.10,1133.80"/>
    </edge>
    <edge id=":162_12" function="internal">
        <lane id=":162_12_0" index="0" speed="21.37" length="21.72" shape="688.17,1118.14 686.83,1122.74 684.47,1128.32 681.66,1133.71 678.99,1137.69"/>
    </edge>
    <edge id=":162_13" function="internal">
        <lane id=":162_13_0" index="0" speed="10.26" length="20.56" shape="688.17,1118.14 686.52,1123.25 683.56,1126.94 679.29,1129.19 673.72,1130.02"/>
    </edge>
    <edge id=":162_14" function="internal">
        <lane id=":162_14_0" index="0" speed="7.46" length="18.29" shape="688.17,1118.14 686.55,1123.41 683.99,1125.66 680.51,1124.90 676.10,1121.12"/>
    </edge>
    <edge id=":162_15" function="internal">
        <lane id=":162_15_0" index="0" speed="5.65" length="9.84" shape="678.45,1118.95 680.87,1121.04 682.76,1121.51 684.15,1120.36 685.02,1117.60"/>
    </edge>
    <edge id=":162_16" function="internal">
        <lane id=":162_16_0" index="0" speed="10.04" length="16.44" shape="678.45,1118.95 681.93,1121.98 685.55,1123.70 689.32,1124.11 693.24,1123.20"/>
    </edge>
    <edge id=":162_17" function="internal">
        <lane id=":162_17_0" index="0" speed="25.00" length="19.51" shape="678.45,1118.95 681.43,1122.26 684.91,1126.27 688.32,1130.32 691.10,1133.80"/>
    </edge>
    <edge id=":162_18" function="internal">
        <lane id=":162_18_0" index="0" speed="10.08" length="5.64" shape="678.45,1118.95 681.67,1123.58"/>
    </edge>
    <edge id=":162_19" function="internal">
        <lane id=":162_19_0" index="0" speed="7.39" length="5.86" shape="678.45,1118.95 681.89,1123.70"/>
    </edge>
    <edge id=":162_32" function="internal">
        <lane id=":162_32_0" index="0" speed="10.08" length="15.18" shape="681.67,1123.58 682.84,1128.24 681.94,1132.95 678.99,1137.69"/>
    </edge>
    <edge id=":162_33" function="internal">
        <lane id=":162_33_0" index="0" speed="7.39" length="12.75" shape="681.89,1123.70 682.25,1127.12 679.53,1129.23 673.72,1130.02"/>
    </edge>
    <edge id=":162_20" function="internal">
        <lane id=":162_20_0" index="0" speed="5.50" length="9.58" shape="673.66,1126.82 676.65,1126.41 678.05,1125.33 677.87,1123.56 676.10,1121.12"/>
    </edge>
    <edge id=":162_21" function="internal">
        <lane id=":162_21_0" index="0" speed="9.12" length="16.07" shape="673.66,1126.82 678.05,1126.18 681.40,1124.43 683.73,1121.57 685.02,1117.60"/>
    </edge>
    <edge id=":162_22" function="internal">
        <lane id=":162_22_0" index="0" speed="25.00" length="19.97" shape="673.66,1126.82 678.18,1126.47 683.58,1125.66 688.92,1124.53 693.24,1123.20"/>
    </edge>
    <edge id=":162_23" function="internal">
        <lane id=":162_23_0" index="0" speed="12.78" length="19.49" shape="673.66,1126.82 679.23,1127.17 683.99,1128.46 687.95,1130.67 691.10,1133.80"/>
    </edge>
    <edge id=":162_24" function="internal">
        <lane id=":162_24_0" index="0" speed="7.40" length="18.54" shape="673.66,1126.82 679.48,1127.40 682.31,1129.41 682.15,1132.84 678.99,1137.69"/>
    </edge>
    <edge id=":162_25" function="internal">
        <lane id=":162_25_0" index="0" speed="5.53" length="9.63" shape="676.54,1135.64 678.17,1133.13 678.24,1131.35 676.76,1130.32 673.72,1130.02"/>
    </edge>
    <edge id=":162_26" function="internal">
        <lane id=":162_26_0" index="0" speed="8.92" length="16.13" shape="676.54,1135.64 678.82,1131.97 679.51,1128.33 678.60,1124.71 676.10,1121.12"/>
    </edge>
    <edge id=":162_27" function="internal">
        <lane id=":162_27_0" index="0" speed="20.55" length="20.06" shape="676.54,1135.64 679.10,1131.89 681.66,1127.03 683.79,1121.96 685.02,1117.60"/>
    </edge>
    <edge id=":162_28" function="internal">
        <lane id=":162_28_0" index="0" speed="22.01" length="20.94" shape="676.54,1135.64 679.85,1132.33 684.35,1128.67 689.12,1125.38 693.24,1123.20"/>
    </edge>
    <edge id=":162_29" function="internal">
        <lane id=":162_29_0" index="0" speed="8.23" length="17.63" shape="676.54,1135.64 680.57,1131.78 684.35,1130.19 687.85,1130.86 691.10,1133.80"/>
    </edge>
    <edge id=":2_0" function="internal">
        <lane id=":2_0_0" index="0" speed="25.00" length="20.52" shape="2088.22,1850.10 2085.05,1846.76 2080.99,1842.83 2076.82,1839.01 2073.33,1836.00"/>
    </edge>
    <edge id=":2_1" function="internal">
        <lane id=":2_1_0" index="0" speed="17.86" length="3.75" shape="2088.22,1850.10 2086.20,1846.94"/>
    </edge>
    <edge id=":2_2" function="internal">
        <lane id=":2_2_0" index="0" speed="7.43" length="4.08" shape="2088.22,1850.10 2085.97,1846.70"/>
    </edge>
    <edge id=":2_12" function="internal">
        <lane id=":2_12_0" index="0" speed="17.86" length="17.25" shape="2086.20,1846.94 2085.72,1846.18 2083.39,1840.85 2081.59,1835.29 2080.69,1830.68"/>
    </edge>
    <edge id=":2_13" function="internal">
        <lane id=":2_13_0" index="0" speed="7.43" length="12.37" shape="2085.97,1846.70 2085.52,1846.02 2085.23,1842.70 2087.36,1840.12 2091.89,1838.29"/>
    </edge>
    <edge id=":2_3" function="internal">
        <lane id=":2_3_0" index="0" speed="5.73" length="9.19" shape="2092.67,1841.39 2090.14,1842.41 2088.96,1843.85 2089.12,1845.71 2090.63,1847.99"/>
    </edge>
    <edge id=":2_4" function="internal">
        <lane id=":2_4_0" index="0" speed="13.23" length="20.84" shape="2092.67,1841.39 2087.82,1841.98 2082.98,1841.28 2078.15,1839.29 2073.33,1836.00"/>
    </edge>
    <edge id=":2_5" function="internal">
        <lane id=":2_5_0" index="0" speed="8.70" length="18.99" shape="2092.67,1841.39 2087.89,1841.75 2084.30,1840.08 2081.90,1836.39 2080.69,1830.68"/>
    </edge>
    <edge id=":2_6" function="internal">
        <lane id=":2_6_0" index="0" speed="7.35" length="13.23" shape="2083.88,1830.39 2084.71,1834.53 2086.32,1837.22 2088.71,1838.47 2091.89,1838.29"/>
    </edge>
    <edge id=":2_7" function="internal">
        <lane id=":2_7_0" index="0" speed="17.01" length="19.04" shape="2083.88,1830.39 2084.66,1834.71 2086.19,1839.65 2088.24,1844.35 2090.63,1847.99"/>
    </edge>
    <edge id=":2_8" function="internal">
        <lane id=":2_8_0" index="0" speed="7.42" length="19.18" shape="2083.88,1830.39 2083.74,1836.51 2081.94,1839.48 2078.47,1839.31 2073.33,1836.00"/>
    </edge>
    <edge id=":2_9" function="internal">
        <lane id=":2_9_0" index="0" speed="5.48" length="9.71" shape="2075.35,1833.52 2077.95,1835.20 2079.71,1835.28 2080.62,1833.78 2080.69,1830.68"/>
    </edge>
    <edge id=":2_10" function="internal">
        <lane id=":2_10_0" index="0" speed="12.27" length="17.85" shape="2075.35,1833.52 2079.52,1836.39 2083.67,1838.13 2087.79,1838.77 2091.89,1838.29"/>
    </edge>
    <edge id=":2_11" function="internal">
        <lane id=":2_11_0" index="0" speed="25.00" length="21.05" shape="2075.35,1833.52 2078.91,1836.59 2083.20,1840.53 2087.39,1844.59 2090.63,1847.99"/>
    </edge>
    <edge id=":20_0" function="internal">
        <lane id=":20_0_0" index="0" speed="6.28" length="12.27" shape="2483.94,1738.74 2487.68,1738.28 2489.87,1739.19 2490.51,1741.47 2489.60,1745.12"/>
    </edge>
    <edge id=":20_1" function="internal">
        <lane id=":20_1_0" index="0" speed="4.01" length="4.09" shape="2486.62,1743.97 2486.92,1742.75 2486.71,1741.99 2485.98,1741.68 2484.73,1741.84"/>
    </edge>
    <edge id=":277_0" function="internal">
        <lane id=":277_0_0" index="0" speed="10.19" length="13.80" shape="343.05,1143.58 339.92,1140.34 336.97,1138.15 334.19,1136.99 331.58,1136.88"/>
    </edge>
    <edge id=":277_1" function="internal">
        <lane id=":277_1_0" index="0" speed="12.17" length="19.19" shape="343.05,1143.58 339.90,1139.15 338.03,1134.72 337.43,1130.29 338.11,1125.86"/>
    </edge>
    <edge id=":277_2" function="internal">
        <lane id=":277_2_0" index="0" speed="7.38" length="18.20" shape="343.05,1143.58 339.91,1138.85 339.69,1135.43 342.39,1133.33 348.01,1132.55"/>
    </edge>
    <edge id=":277_3" function="internal">
        <lane id=":277_3_0" index="0" speed="5.53" length="9.49" shape="348.07,1135.75 345.14,1136.16 343.73,1137.25 343.84,1139.03 345.48,1141.50"/>
    </edge>
    <edge id=":277_4" function="internal">
        <lane id=":277_4_0" index="0" speed="25.00" length="16.54" shape="348.07,1135.75 344.08,1135.85 339.80,1136.05 335.54,1136.38 331.58,1136.88"/>
    </edge>
    <edge id=":277_5" function="internal">
        <lane id=":277_5_0" index="0" speed="7.97" length="5.39" shape="348.07,1135.75 342.71,1135.23"/>
    </edge>
    <edge id=":277_12" function="internal">
        <lane id=":277_12_0" index="0" speed="7.97" length="11.96" shape="342.71,1135.23 342.59,1135.22 339.10,1133.39 337.61,1130.27 338.11,1125.86"/>
    </edge>
    <edge id=":277_6" function="internal">
        <lane id=":277_6_0" index="0" speed="6.46" length="10.96" shape="341.18,1126.77 340.94,1129.36 342.01,1131.18 344.36,1132.25 348.01,1132.55"/>
    </edge>
    <edge id=":277_7" function="internal">
        <lane id=":277_7_0" index="0" speed="11.15" length="16.00" shape="341.18,1126.77 340.65,1130.39 341.19,1134.05 342.80,1137.75 345.48,1141.50"/>
    </edge>
    <edge id=":277_8" function="internal">
        <lane id=":277_8_0" index="0" speed="9.93" length="14.72" shape="341.18,1126.77 339.58,1130.77 337.44,1133.79 334.78,1135.83 331.58,1136.88"/>
    </edge>
    <edge id=":277_9" function="internal">
        <lane id=":277_9_0" index="0" speed="8.69" length="11.13" shape="331.07,1133.72 333.36,1132.93 335.30,1131.36 336.88,1129.00 338.11,1125.86"/>
    </edge>
    <edge id=":277_10" function="internal">
        <lane id=":277_10_0" index="0" speed="25.00" length="16.99" shape="331.07,1133.72 335.10,1133.21 339.52,1132.87 343.95,1132.66 348.01,1132.55"/>
    </edge>
    <edge id=":277_11" function="internal">
        <lane id=":277_11_0" index="0" speed="11.29" length="3.79" shape="331.07,1133.72 334.53,1133.79 334.84,1133.91"/>
    </edge>
    <edge id=":277_13" function="internal">
        <lane id=":277_13_0" index="0" speed="11.29" length="13.27" shape="334.84,1133.91 338.08,1135.11 341.73,1137.68 345.48,1141.50"/>
    </edge>
    <edge id=":281_0" function="internal">
        <lane id=":281_0_0" index="0" speed="6.00" length="9.08" shape="742.64,835.75 740.16,834.99 738.24,835.31 736.89,836.70 736.09,839.17"/>
    </edge>
    <edge id=":281_1" function="internal">
        <lane id=":281_1_0" index="0" speed="19.43" length="15.07" shape="742.64,835.75 739.15,834.35 735.50,833.37 731.77,832.83 728.01,832.76"/>
    </edge>
    <edge id=":281_2" function="internal">
        <lane id=":281_2_0" index="0" speed="20.38" length="16.60" shape="727.87,829.56 731.86,829.69 736.11,830.33 740.28,831.41 744.01,832.86"/>
    </edge>
    <edge id=":281_3" function="internal">
        <lane id=":281_3_0" index="0" speed="7.71" length="4.92" shape="727.87,829.56 732.11,830.00 732.66,830.34"/>
    </edge>
    <edge id=":281_6" function="internal">
        <lane id=":281_6_0" index="0" speed="7.71" length="10.33" shape="732.66,830.34 734.90,831.74 736.22,834.80 736.09,839.17"/>
    </edge>
    <edge id=":281_4" function="internal">
        <lane id=":281_4_0" index="0" speed="6.15" length="9.24" shape="732.93,838.63 733.02,835.96 732.23,834.09 730.56,833.03 728.01,832.76"/>
    </edge>
    <edge id=":281_5" function="internal">
        <lane id=":281_5_0" index="0" speed="7.60" length="15.33" shape="732.93,838.63 734.28,834.46 736.57,832.10 739.82,831.57 744.01,832.86"/>
    </edge>
    <edge id=":29_0" function="internal">
        <lane id=":29_0_0" index="0" speed="5.75" length="9.18" shape="1698.15,1529.83 1695.83,1528.41 1693.96,1528.31 1692.54,1529.53 1691.57,1532.07"/>
    </edge>
    <edge id=":29_1" function="internal">
        <lane id=":29_1_0" index="0" speed="25.00" length="14.96" shape="1698.15,1529.83 1695.27,1527.43 1692.48,1524.93 1689.84,1522.29 1687.39,1519.47"/>
    </edge>
    <edge id=":29_2" function="internal">
        <lane id=":29_2_0" index="0" speed="25.00" length="14.27" shape="1689.90,1517.48 1692.27,1520.23 1694.75,1522.70 1697.37,1525.03 1700.17,1527.35"/>
    </edge>
    <edge id=":29_3" function="internal">
        <lane id=":29_3_0" index="0" speed="11.63" length="3.32" shape="1689.90,1517.48 1691.48,1520.25 1691.51,1520.38"/>
    </edge>
    <edge id=":29_6" function="internal">